
  EPA STORM WATER MANAGEMENT MODEL - VERSION 5.1 (Build 5.1.009)
  --------------------------------------------------------------

  WARNING 01: wet weather time step reduced to recording interval for Rain Gage P-1
  WARNING 02: maximum depth increased for Node N-2
  WARNING 02: maximum depth increased for Node N-1
  WARNING 02: maximum depth increased for Node N-3
  WARNING 02: maximum depth increased for Node N-4
  WARNING 02: maximum depth increased for Node NG-5
  WARNING 02: maximum depth increased for Node N-6
  WARNING 02: maximum depth increased for Node N-10
  WARNING 02: maximum depth increased for Node NG-11
  WARNING 02: maximum depth increased for Node N-12
  
  *********************************************************
  NOTE: The summary statistics displayed in this report are
  based on results found at every computational time step,  
  not just on results from each reporting time step.
  *********************************************************
  
  ****************
  Analysis Options
  ****************
  Flow Units ............... CMS
  Process Models:
    Rainfall/Runoff ........ YES
    RDII ................... NO
    Snowmelt ............... NO
    Groundwater ............ NO
    Flow Routing ........... YES
    Ponding Allowed ........ NO
    Water Quality .......... NO
  Infiltration Method ...... HORTON
  Flow Routing Method ...... DYNWAVE
  Starting Date ............ JAN-19-2015 00:00:00
  Ending Date .............. JAN-20-2015 00:00:00
  Antecedent Dry Days ...... 0.0
  Report Time Step ......... 00:01:00
  Wet Time Step ............ 00:05:00
  Dry Time Step ............ 01:00:00
  Routing Time Step ........ 30.00 sec
  Variable Time Step ....... YES
  Maximum Trials ........... 8
  Number of Threads ........ 1
  Head Tolerance ........... 0.001500 m
  
  
  **************************        Volume         Depth
  Runoff Quantity Continuity     hectare-m            mm
  **************************     ---------       -------
  Total Precipitation ......        11.274        26.958
  Evaporation Loss .........         0.000         0.000
  Infiltration Loss ........         2.631         6.292
  Surface Runoff ...........         8.254        19.737
  Final Storage ............         0.397         0.948
  Continuity Error (%) .....        -0.071
  
  
  **************************        Volume        Volume
  Flow Routing Continuity        hectare-m      10^6 ltr
  **************************     ---------     ---------
  Dry Weather Inflow .......         0.000         0.000
  Wet Weather Inflow .......         8.254        82.539
  Groundwater Inflow .......         0.000         0.000
  RDII Inflow ..............         0.000         0.000
  External Inflow ..........         0.000         0.000
  External Outflow .........         8.158        81.579
  Flooding Loss ............         0.061         0.612
  Evaporation Loss .........         0.000         0.000
  Exfiltration Loss ........         0.000         0.000
  Initial Stored Volume ....         0.000         0.000
  Final Stored Volume ......         0.029         0.286
  Continuity Error (%) .....         0.076
  
  
  ***************************
  Time-Step Critical Elements
  ***************************
  None
  
  
  ********************************
  Highest Flow Instability Indexes
  ********************************
  Link G4 (22)
  Link G5 (20)
  Link G3 (19)
  
  
  *************************
  Routing Time Step Summary
  *************************
  Minimum Time Step           :    29.50 sec
  Average Time Step           :    29.99 sec
  Maximum Time Step           :    30.00 sec
  Percent in Steady State     :     0.00
  Average Iterations per Step :     2.09
  Percent Not Converging      :     0.00
  
  
  ***************************
  Subcatchment Runoff Summary
  ***************************
  
  --------------------------------------------------------------------------------------------------------
                            Total      Total      Total      Total      Total       Total     Peak  Runoff
                           Precip      Runon       Evap      Infil     Runoff      Runoff   Runoff   Coeff
  Subcatchment                 mm         mm         mm         mm         mm    10^6 ltr      CMS
  --------------------------------------------------------------------------------------------------------
  SUB1                      26.96       0.00       0.00       0.50      26.16       31.40     5.75   0.971
  SUB3                      26.96       0.00       0.00       9.06      15.55       12.47     1.95   0.577
  SUB4                      26.96       0.00       0.00       7.78      19.17       23.00     3.52   0.711
  SUB2                      26.96       0.00       0.00       9.30      15.99       15.67     2.61   0.593
  
  
  ******************
  Node Depth Summary
  ******************
  
  ---------------------------------------------------------------------------------
                                 Average  Maximum  Maximum  Time of Max    Reported
                                   Depth    Depth      HGL   Occurrence   Max Depth
  Node                 Type       Meters   Meters   Meters  days hr:min      Meters
  ---------------------------------------------------------------------------------
  N-2                  JUNCTION     0.11     0.93  2499.92     0  02:30        0.28
  N-1                  JUNCTION     0.10     0.81  2500.81     0  02:07        0.25
  N-3                  JUNCTION     0.15     1.26  2499.90     0  02:29        0.38
  N-4                  JUNCTION     0.20     1.48  2499.48     0  02:32        0.45
  NG-5                 JUNCTION     0.14     1.02  2498.67     0  02:32        0.31
  N-6                  JUNCTION     0.11     0.75  2498.40     0  02:27        0.23
  NG-7                 JUNCTION     0.14     0.99  2498.64     0  02:20        0.30
  N-8                  JUNCTION     0.20     1.50  2499.50     0  02:12        0.46
  N-9                  JUNCTION     0.23     2.00  2500.70     0  01:59        0.61
  N-10                 JUNCTION     0.12     1.02  2497.02     0  02:32        0.31
  NG-11                JUNCTION     0.34     2.01  2497.01     0  02:33        0.61
  N-12                 JUNCTION     0.34     1.96  2496.96     0  02:29        0.60
  NG-13                JUNCTION     0.34     1.97  2496.97     0  02:33        0.60
  N-14                 JUNCTION     0.15     1.17  2497.17     0  02:31        0.36
  N-15                 JUNCTION     0.23     1.76  2498.41     0  02:06        0.54
  NG-16                JUNCTION     0.35     2.00  2497.00     0  02:27        0.61
  N-17                 JUNCTION     0.24     1.93  2497.93     0  02:04        0.59
  N-18                 JUNCTION     0.24     2.00  2498.65     0  02:03        0.61
  N-19                 JUNCTION     0.21     2.00  2499.30     0  02:01        0.61
  DES                  OUTFALL      0.18     1.11  2495.11     0  02:34        0.34
  
  
  *******************
  Node Inflow Summary
  *******************
  
  -------------------------------------------------------------------------------------------------
                                  Maximum  Maximum                  Lateral       Total        Flow
                                  Lateral    Total  Time of Max      Inflow      Inflow     Balance
                                   Inflow   Inflow   Occurrence      Volume      Volume       Error
  Node                 Type           CMS      CMS  days hr:min    10^6 ltr    10^6 ltr     Percent
  -------------------------------------------------------------------------------------------------
  N-2                  JUNCTION     0.000    5.917     0  02:11           0        31.5       0.563
  N-1                  JUNCTION     5.750    5.750     0  02:05        31.4        31.4      -0.412
  N-3                  JUNCTION     0.000    4.712     0  02:16           0        31.3       0.179
  N-4                  JUNCTION     0.000    4.454     0  02:29           0        31.3       0.123
  NG-5                 JUNCTION     0.000    4.424     0  02:33           0        31.4       0.039
  N-6                  JUNCTION     0.000    6.222     0  02:26           0          47       0.047
  NG-7                 JUNCTION     0.000    2.232     0  02:12           0        15.6       0.016
  N-8                  JUNCTION     0.000    2.327     0  02:02           0        15.6       0.021
  N-9                  JUNCTION     2.615    2.615     0  01:55        15.7        15.7       0.007
  N-10                 JUNCTION     0.000    6.220     0  02:27           0        46.8      -0.014
  NG-11                JUNCTION     0.000    6.226     0  02:27           0          47       0.094
  N-12                 JUNCTION     0.000    9.628     0  02:26           0        81.8       0.078
  NG-13                JUNCTION     0.000    1.759     0  02:14           0        12.5       0.174
  N-14                 JUNCTION     0.000    1.883     0  02:07           0        12.5       0.008
  N-15                 JUNCTION     1.954    1.954     0  01:55        12.5        12.5       0.048
  NG-16                JUNCTION     0.000    3.128     0  02:15           0        22.8       0.129
  N-17                 JUNCTION     0.000    3.243     0  02:00           0        22.8      -0.012
  N-18                 JUNCTION     0.000    3.441     0  01:59           0        22.9       0.032
  N-19                 JUNCTION     3.520    3.520     0  01:55          23          23       0.008
  DES                  OUTFALL      0.000    9.188     0  02:34           0        81.6       0.000
  
  
  **********************
  Node Surcharge Summary
  **********************
  
  Surcharging occurs when water rises above the top of the highest conduit.
  ---------------------------------------------------------------------
                                               Max. Height   Min. Depth
                                   Hours       Above Crown    Below Rim
  Node                 Type      Surcharged         Meters       Meters
  ---------------------------------------------------------------------
  N-9                  JUNCTION        0.14          0.000        0.000
  NG-16                JUNCTION        0.22          0.000        0.000
  N-18                 JUNCTION        0.19          0.000        0.000
  N-19                 JUNCTION        0.15          0.000        0.000
  
  
  *********************
  Node Flooding Summary
  *********************
  
  Flooding refers to all water that overflows a node, whether it ponds or not.
  --------------------------------------------------------------------------
                                                             Total   Maximum
                                 Maximum   Time of Max       Flood    Ponded
                        Hours       Rate    Occurrence      Volume     Depth
  Node                 Flooded       CMS   days hr:min    10^6 ltr    Meters
  --------------------------------------------------------------------------
  N-9                     0.14     0.244      0  01:59       0.067     0.000
  NG-16                   0.22     0.750      0  02:29       0.341     0.000
  N-18                    0.18     0.198      0  02:06       0.094     0.000
  N-19                    0.15     0.277      0  02:04       0.110     0.000
  
  
  ***********************
  Outfall Loading Summary
  ***********************
  
  -----------------------------------------------------------
                         Flow       Avg       Max       Total
                         Freq      Flow      Flow      Volume
  Outfall Node           Pcnt       CMS       CMS    10^6 ltr
  -----------------------------------------------------------
  DES                   93.16     1.013     9.188      81.579
  -----------------------------------------------------------
  System                93.16     1.013     9.188      81.579
  
  
  ********************
  Link Flow Summary
  ********************
  
  -----------------------------------------------------------------------------
                                 Maximum  Time of Max   Maximum    Max/    Max/
                                  |Flow|   Occurrence   |Veloc|    Full    Full
  Link                 Type          CMS  days hr:min     m/sec    Flow   Depth
  -----------------------------------------------------------------------------
  C1                   CONDUIT     5.917     0  02:11      1.61    0.03    0.19
  C2                   CONDUIT     4.712     0  02:16      1.21    0.02    0.26
  C3                   CONDUIT     4.454     0  02:29      1.78    0.38    0.46
  C4                   CONDUIT     4.424     0  02:33      1.77    0.56    0.42
  C5                   CONDUIT     2.327     0  02:02      1.42    1.26    0.87
  C6                   CONDUIT     2.232     0  02:12      1.85    0.95    0.62
  C7                   CONDUIT     6.220     0  02:27      3.14    0.16    0.25
  C8                   CONDUIT     6.226     0  02:27      1.79    0.18    0.43
  C9                   CONDUIT     1.883     0  02:07      1.36    1.06    0.71
  C10                  CONDUIT     1.759     0  02:14      1.58    0.58    0.78
  C14                  CONDUIT     9.188     0  02:34      2.39    0.56    0.44
  C13                  CONDUIT     3.128     0  02:15      1.99    1.09    0.93
  C12                  CONDUIT     3.243     0  02:00      1.73    1.19    0.98
  C11                  CONDUIT     3.441     0  01:59      1.87    1.08    1.00
  G1                   ORIFICE     4.438     0  02:35                      0.34
  G2                   ORIFICE     2.172     0  02:14                      0.49
  G3                   ORIFICE     6.257     0  02:33                      0.57
  G4                   ORIFICE     1.352     0  02:34                      0.99
  G5                   ORIFICE     2.747     0  02:06                      1.00
  
  
  ***************************
  Flow Classification Summary
  ***************************
  
  -------------------------------------------------------------------------------------
                      Adjusted    ---------- Fraction of Time in Flow Class ---------- 
                       /Actual         Up    Down  Sub   Sup   Up    Down  Norm  Inlet 
  Conduit               Length    Dry  Dry   Dry   Crit  Crit  Crit  Crit  Ltd   Ctrl  
  -------------------------------------------------------------------------------------
  C1                      1.00   0.05  0.00  0.00  0.95  0.00  0.00  0.00  0.91  0.00
  C2                      1.00   0.05  0.00  0.00  0.95  0.00  0.00  0.00  0.86  0.00
  C3                      1.00   0.05  0.00  0.00  0.95  0.00  0.00  0.00  0.86  0.00
  C4                      1.00   0.07  0.00  0.00  0.93  0.00  0.00  0.00  0.01  0.00
  C5                      1.00   0.05  0.00  0.00  0.95  0.00  0.00  0.00  0.67  0.00
  C6                      1.00   0.05  0.00  0.00  0.95  0.00  0.00  0.00  0.25  0.00
  C7                      1.00   0.06  0.00  0.00  0.54  0.39  0.00  0.00  0.90  0.00
  C8                      1.00   0.07  0.00  0.00  0.93  0.00  0.00  0.00  0.89  0.00
  C9                      1.00   0.05  0.00  0.00  0.95  0.00  0.00  0.00  0.16  0.00
  C10                     1.00   0.05  0.00  0.00  0.95  0.00  0.00  0.00  0.85  0.00
  C14                     1.00   0.06  0.00  0.00  0.94  0.00  0.00  0.00  0.00  0.00
  C13                     1.00   0.05  0.00  0.00  0.95  0.00  0.00  0.00  0.85  0.00
  C12                     1.00   0.05  0.00  0.00  0.95  0.00  0.00  0.00  0.41  0.00
  C11                     1.00   0.05  0.00  0.00  0.95  0.00  0.00  0.00  0.88  0.00
  
  
  *************************
  Conduit Surcharge Summary
  *************************
  
  ----------------------------------------------------------------------------
                                                           Hours        Hours 
                         --------- Hours Full --------   Above Full   Capacity
  Conduit                Both Ends  Upstream  Dnstream   Normal Flow   Limited
  ----------------------------------------------------------------------------
  C5                          0.01      0.01      0.01      0.47         0.01
  C9                          0.01      0.01      0.01      0.20         0.01
  C13                         0.01      0.01      0.01      0.36         0.01
  C12                         0.01      0.01      0.01      0.44         0.01
  C11                         0.01      0.01      0.01      0.25         0.01
  
  
  ********************
  Subcatchment Results
  ********************
  
  <<< Subcatchment SUB1 >>>
  ---------------------------------------------------
  Date        Time        Precip.    Losses    Runoff
                            mm/hr     mm/hr       CMS
  ---------------------------------------------------
  JAN-19-2015 00:01:00      0.000     0.000    0.0000
  JAN-19-2015 00:02:00      0.000     0.000    0.0000
  JAN-19-2015 00:03:00      0.000     0.000    0.0000
  JAN-19-2015 00:04:00      0.000     0.000    0.0000
  JAN-19-2015 00:05:00      0.000     0.000    0.0000
  JAN-19-2015 00:06:00      0.000     0.000    0.0000
  JAN-19-2015 00:07:00      0.000     0.000    0.0000
  JAN-19-2015 00:08:00      0.000     0.000    0.0000
  JAN-19-2015 00:09:00      0.000     0.000    0.0000
  JAN-19-2015 00:10:00      0.000     0.000    0.0000
  JAN-19-2015 00:11:00      0.000     0.000    0.0000
  JAN-19-2015 00:12:00      0.000     0.000    0.0000
  JAN-19-2015 00:13:00      0.000     0.000    0.0000
  JAN-19-2015 00:14:00      0.000     0.000    0.0000
  JAN-19-2015 00:15:00      0.000     0.000    0.0000
  JAN-19-2015 00:16:00      0.000     0.000    0.0000
  JAN-19-2015 00:17:00      0.000     0.000    0.0000
  JAN-19-2015 00:18:00      0.000     0.000    0.0000
  JAN-19-2015 00:19:00      0.000     0.000    0.0000
  JAN-19-2015 00:20:00      0.000     0.000    0.0000
  JAN-19-2015 00:21:00      0.000     0.000    0.0000
  JAN-19-2015 00:22:00      0.000     0.000    0.0000
  JAN-19-2015 00:23:00      0.000     0.000    0.0000
  JAN-19-2015 00:24:00      0.000     0.000    0.0000
  JAN-19-2015 00:25:00      0.000     0.000    0.0000
  JAN-19-2015 00:26:00      0.000     0.000    0.0000
  JAN-19-2015 00:27:00      0.000     0.000    0.0000
  JAN-19-2015 00:28:00      0.000     0.000    0.0000
  JAN-19-2015 00:29:00      0.000     0.000    0.0000
  JAN-19-2015 00:30:00      0.000     0.000    0.0000
  JAN-19-2015 00:31:00      0.000     0.000    0.0000
  JAN-19-2015 00:32:00      0.000     0.000    0.0000
  JAN-19-2015 00:33:00      0.000     0.000    0.0000
  JAN-19-2015 00:34:00      0.000     0.000    0.0000
  JAN-19-2015 00:35:00      0.000     0.000    0.0000
  JAN-19-2015 00:36:00      0.000     0.000    0.0000
  JAN-19-2015 00:37:00      0.000     0.000    0.0000
  JAN-19-2015 00:38:00      0.000     0.000    0.0000
  JAN-19-2015 00:39:00      0.000     0.000    0.0000
  JAN-19-2015 00:40:00      0.000     0.000    0.0000
  JAN-19-2015 00:41:00      0.000     0.000    0.0000
  JAN-19-2015 00:42:00      0.000     0.000    0.0000
  JAN-19-2015 00:43:00      0.000     0.000    0.0000
  JAN-19-2015 00:44:00      0.000     0.000    0.0000
  JAN-19-2015 00:45:00      0.000     0.000    0.0000
  JAN-19-2015 00:46:00      0.000     0.000    0.0000
  JAN-19-2015 00:47:00      0.000     0.000    0.0000
  JAN-19-2015 00:48:00      0.000     0.000    0.0000
  JAN-19-2015 00:49:00      0.000     0.000    0.0000
  JAN-19-2015 00:50:00      0.000     0.000    0.0000
  JAN-19-2015 00:51:00      0.000     0.000    0.0000
  JAN-19-2015 00:52:00      0.000     0.000    0.0000
  JAN-19-2015 00:53:00      0.000     0.000    0.0000
  JAN-19-2015 00:54:00      0.000     0.000    0.0000
  JAN-19-2015 00:55:00      0.000     0.000    0.0000
  JAN-19-2015 00:56:00      0.000     0.000    0.0000
  JAN-19-2015 00:57:00      0.000     0.000    0.0000
  JAN-19-2015 00:58:00      0.000     0.000    0.0000
  JAN-19-2015 00:59:00      0.000     0.000    0.0000
  JAN-19-2015 01:00:00      0.000     0.000    0.0000
  JAN-19-2015 01:01:00      0.000     0.000    0.0000
  JAN-19-2015 01:02:00      0.000     0.000    0.0000
  JAN-19-2015 01:03:00      0.000     0.000    0.0000
  JAN-19-2015 01:04:00      0.000     0.000    0.0000
  JAN-19-2015 01:05:00      3.800     0.263    0.0000
  JAN-19-2015 01:06:00      3.800     0.263    0.0000
  JAN-19-2015 01:07:00      3.800     0.263    0.0000
  JAN-19-2015 01:08:00      3.800     0.263    0.0000
  JAN-19-2015 01:09:00      3.800     0.263    0.0000
  JAN-19-2015 01:10:00      9.000     0.202    0.0000
  JAN-19-2015 01:11:00      9.000     0.202    0.0129
  JAN-19-2015 01:12:00      9.000     0.202    0.0209
  JAN-19-2015 01:13:00      9.000     0.202    0.0288
  JAN-19-2015 01:14:00      9.000     0.202    0.0368
  JAN-19-2015 01:15:00      9.900     0.159    0.0448
  JAN-19-2015 01:16:00      9.900     0.159    0.0596
  JAN-19-2015 01:17:00      9.900     0.159    0.0745
  JAN-19-2015 01:18:00      9.900     0.159    0.0894
  JAN-19-2015 01:19:00      9.900     0.159    0.1043
  JAN-19-2015 01:20:00     16.300     0.128    0.1192
  JAN-19-2015 01:21:00     16.300     0.128    0.1546
  JAN-19-2015 01:22:00     16.300     0.128    0.1900
  JAN-19-2015 01:23:00     16.300     0.128    0.2254
  JAN-19-2015 01:24:00     16.300     0.128    0.2608
  JAN-19-2015 01:25:00     19.800     0.106    0.2962
  JAN-19-2015 01:26:00     19.800     0.106    0.3530
  JAN-19-2015 01:27:00     19.800     0.106    0.4099
  JAN-19-2015 01:28:00     19.800     0.106    0.4668
  JAN-19-2015 01:29:00     19.800     0.106    0.5236
  JAN-19-2015 01:30:00     25.900     0.090    0.5805
  JAN-19-2015 01:31:00     25.900     0.090    0.6733
  JAN-19-2015 01:32:00     25.900     0.090    0.7660
  JAN-19-2015 01:33:00     25.900     0.090    0.8588
  JAN-19-2015 01:34:00     25.900     0.090    0.9516
  JAN-19-2015 01:35:00     30.700     0.079    1.0444
  JAN-19-2015 01:36:00     30.700     0.079    1.1743
  JAN-19-2015 01:37:00     30.700     0.079    1.3043
  JAN-19-2015 01:38:00     30.700     0.079    1.4343
  JAN-19-2015 01:39:00     30.700     0.079    1.5643
  JAN-19-2015 01:40:00     35.200     0.071    1.6943
  JAN-19-2015 01:41:00     35.200     0.071    1.8624
  JAN-19-2015 01:42:00     35.200     0.071    2.0306
  JAN-19-2015 01:43:00     35.200     0.071    2.1987
  JAN-19-2015 01:44:00     35.200     0.071    2.3668
  JAN-19-2015 01:45:00     43.000     0.065    2.5350
  JAN-19-2015 01:46:00     43.000     0.065    2.7641
  JAN-19-2015 01:47:00     43.000     0.065    2.9932
  JAN-19-2015 01:48:00     43.000     0.065    3.2223
  JAN-19-2015 01:49:00     43.000     0.065    3.4514
  JAN-19-2015 01:50:00     48.000     0.061    3.6805
  JAN-19-2015 01:51:00     48.000     0.061    3.9528
  JAN-19-2015 01:52:00     48.000     0.061    4.2250
  JAN-19-2015 01:53:00     48.000     0.061    4.4972
  JAN-19-2015 01:54:00     48.000     0.061    4.7695
  JAN-19-2015 01:55:00     25.300     0.058    5.0417
  JAN-19-2015 01:56:00     25.300     0.058    5.1217
  JAN-19-2015 01:57:00     25.300     0.058    5.2017
  JAN-19-2015 01:58:00     25.300     0.058    5.2817
  JAN-19-2015 01:59:00     25.300     0.058    5.3617
  JAN-19-2015 02:00:00     24.000     0.055    5.4417
  JAN-19-2015 02:01:00     24.000     0.055    5.5034
  JAN-19-2015 02:02:00     24.000     0.055    5.5652
  JAN-19-2015 02:03:00     24.000     0.055    5.6269
  JAN-19-2015 02:04:00     24.000     0.055    5.6886
  JAN-19-2015 02:05:00     12.800     0.054    5.7504
  JAN-19-2015 02:06:00     12.800     0.054    5.7136
  JAN-19-2015 02:07:00     12.800     0.054    5.6768
  JAN-19-2015 02:08:00     12.800     0.054    5.6400
  JAN-19-2015 02:09:00     12.800     0.054    5.6032
  JAN-19-2015 02:10:00     11.200     0.053    5.5664
  JAN-19-2015 02:11:00     11.200     0.053    5.5217
  JAN-19-2015 02:12:00     11.200     0.053    5.4771
  JAN-19-2015 02:13:00     11.200     0.053    5.4324
  JAN-19-2015 02:14:00     11.200     0.053    5.3877
  JAN-19-2015 02:15:00      4.800     0.052    5.3430
  JAN-19-2015 02:16:00      4.800     0.052    5.2545
  JAN-19-2015 02:17:00      4.800     0.052    5.1659
  JAN-19-2015 02:18:00      4.800     0.052    5.0774
  JAN-19-2015 02:19:00      4.800     0.052    4.9888
  JAN-19-2015 02:20:00      2.200     0.051    4.9003
  JAN-19-2015 02:21:00      2.200     0.051    4.8052
  JAN-19-2015 02:22:00      2.200     0.051    4.7101
  JAN-19-2015 02:23:00      2.200     0.051    4.6150
  JAN-19-2015 02:24:00      2.200     0.051    4.5200
  JAN-19-2015 02:25:00      1.600     0.051    4.4249
  JAN-19-2015 02:26:00      1.600     0.051    4.3394
  JAN-19-2015 02:27:00      1.600     0.051    4.2540
  JAN-19-2015 02:28:00      1.600     0.051    4.1685
  JAN-19-2015 02:29:00      1.600     0.051    4.0830
  JAN-19-2015 02:30:00      0.000     0.051    3.9976
  JAN-19-2015 02:31:00      0.000     0.051    3.9132
  JAN-19-2015 02:32:00      0.000     0.051    3.8289
  JAN-19-2015 02:33:00      0.000     0.051    3.7446
  JAN-19-2015 02:34:00      0.000     0.051    3.6603
  JAN-19-2015 02:35:00      0.000     0.051    3.5760
  JAN-19-2015 02:36:00      0.000     0.051    3.5036
  JAN-19-2015 02:37:00      0.000     0.051    3.4312
  JAN-19-2015 02:38:00      0.000     0.051    3.3588
  JAN-19-2015 02:39:00      0.000     0.051    3.2864
  JAN-19-2015 02:40:00      0.000     0.050    3.2140
  JAN-19-2015 02:41:00      0.000     0.050    3.1514
  JAN-19-2015 02:42:00      0.000     0.050    3.0889
  JAN-19-2015 02:43:00      0.000     0.050    3.0263
  JAN-19-2015 02:44:00      0.000     0.050    2.9637
  JAN-19-2015 02:45:00      0.000     0.050    2.9012
  JAN-19-2015 02:46:00      0.000     0.050    2.8468
  JAN-19-2015 02:47:00      0.000     0.050    2.7924
  JAN-19-2015 02:48:00      0.000     0.050    2.7380
  JAN-19-2015 02:49:00      0.000     0.050    2.6836
  JAN-19-2015 02:50:00      0.000     0.050    2.6292
  JAN-19-2015 02:51:00      0.000     0.050    2.5817
  JAN-19-2015 02:52:00      0.000     0.050    2.5342
  JAN-19-2015 02:53:00      0.000     0.050    2.4866
  JAN-19-2015 02:54:00      0.000     0.050    2.4391
  JAN-19-2015 02:55:00      0.000     0.050    2.3916
  JAN-19-2015 02:56:00      0.000     0.050    2.3498
  JAN-19-2015 02:57:00      0.000     0.050    2.3081
  JAN-19-2015 02:58:00      0.000     0.050    2.2663
  JAN-19-2015 02:59:00      0.000     0.050    2.2246
  JAN-19-2015 03:00:00      0.000     0.050    2.1828
  JAN-19-2015 03:01:00      0.000     0.050    2.1460
  JAN-19-2015 03:02:00      0.000     0.050    2.1091
  JAN-19-2015 03:03:00      0.000     0.050    2.0723
  JAN-19-2015 03:04:00      0.000     0.050    2.0354
  JAN-19-2015 03:05:00      0.000     0.050    1.9986
  JAN-19-2015 03:06:00      0.000     0.050    1.9660
  JAN-19-2015 03:07:00      0.000     0.050    1.9333
  JAN-19-2015 03:08:00      0.000     0.050    1.9006
  JAN-19-2015 03:09:00      0.000     0.050    1.8680
  JAN-19-2015 03:10:00      0.000     0.050    1.8353
  JAN-19-2015 03:11:00      0.000     0.050    1.8063
  JAN-19-2015 03:12:00      0.000     0.050    1.7772
  JAN-19-2015 03:13:00      0.000     0.050    1.7482
  JAN-19-2015 03:14:00      0.000     0.050    1.7191
  JAN-19-2015 03:15:00      0.000     0.050    1.6901
  JAN-19-2015 03:16:00      0.000     0.050    1.6641
  JAN-19-2015 03:17:00      0.000     0.050    1.6382
  JAN-19-2015 03:18:00      0.000     0.050    1.6122
  JAN-19-2015 03:19:00      0.000     0.050    1.5862
  JAN-19-2015 03:20:00      0.000     0.050    1.5603
  JAN-19-2015 03:21:00      0.000     0.050    1.5370
  JAN-19-2015 03:22:00      0.000     0.050    1.5138
  JAN-19-2015 03:23:00      0.000     0.050    1.4905
  JAN-19-2015 03:24:00      0.000     0.050    1.4672
  JAN-19-2015 03:25:00      0.000     0.050    1.4440
  JAN-19-2015 03:26:00      0.000     0.050    1.4231
  JAN-19-2015 03:27:00      0.000     0.050    1.4021
  JAN-19-2015 03:28:00      0.000     0.050    1.3812
  JAN-19-2015 03:29:00      0.000     0.050    1.3603
  JAN-19-2015 03:30:00      0.000     0.050    1.3394
  JAN-19-2015 03:31:00      0.000     0.050    1.3205
  JAN-19-2015 03:32:00      0.000     0.050    1.3016
  JAN-19-2015 03:33:00      0.000     0.050    1.2827
  JAN-19-2015 03:34:00      0.000     0.050    1.2639
  JAN-19-2015 03:35:00      0.000     0.050    1.2450
  JAN-19-2015 03:36:00      0.000     0.050    1.2279
  JAN-19-2015 03:37:00      0.000     0.050    1.2108
  JAN-19-2015 03:38:00      0.000     0.050    1.1937
  JAN-19-2015 03:39:00      0.000     0.050    1.1767
  JAN-19-2015 03:40:00      0.000     0.050    1.1596
  JAN-19-2015 03:41:00      0.000     0.050    1.1441
  JAN-19-2015 03:42:00      0.000     0.050    1.1286
  JAN-19-2015 03:43:00      0.000     0.050    1.1131
  JAN-19-2015 03:44:00      0.000     0.050    1.0976
  JAN-19-2015 03:45:00      0.000     0.050    1.0821
  JAN-19-2015 03:46:00      0.000     0.050    1.0680
  JAN-19-2015 03:47:00      0.000     0.050    1.0539
  JAN-19-2015 03:48:00      0.000     0.050    1.0398
  JAN-19-2015 03:49:00      0.000     0.050    1.0257
  JAN-19-2015 03:50:00      0.000     0.050    1.0116
  JAN-19-2015 03:51:00      0.000     0.050    0.9988
  JAN-19-2015 03:52:00      0.000     0.050    0.9859
  JAN-19-2015 03:53:00      0.000     0.050    0.9730
  JAN-19-2015 03:54:00      0.000     0.050    0.9602
  JAN-19-2015 03:55:00      0.000     0.050    0.9473
  JAN-19-2015 03:56:00      0.000     0.050    0.9356
  JAN-19-2015 03:57:00      0.000     0.050    0.9238
  JAN-19-2015 03:58:00      0.000     0.050    0.9121
  JAN-19-2015 03:59:00      0.000     0.050    0.9003
  JAN-19-2015 04:00:00      0.000     0.050    0.8886
  JAN-19-2015 04:01:00      0.000     0.050    0.8778
  JAN-19-2015 04:02:00      0.000     0.050    0.8670
  JAN-19-2015 04:03:00      0.000     0.050    0.8562
  JAN-19-2015 04:04:00      0.000     0.050    0.8455
  JAN-19-2015 04:05:00      0.000     0.050    0.8347
  JAN-19-2015 04:06:00      0.000     0.050    0.8248
  JAN-19-2015 04:07:00      0.000     0.050    0.8149
  JAN-19-2015 04:08:00      0.000     0.050    0.8050
  JAN-19-2015 04:09:00      0.000     0.050    0.7952
  JAN-19-2015 04:10:00      0.000     0.050    0.7853
  JAN-19-2015 04:11:00      0.000     0.050    0.7762
  JAN-19-2015 04:12:00      0.000     0.050    0.7671
  JAN-19-2015 04:13:00      0.000     0.050    0.7580
  JAN-19-2015 04:14:00      0.000     0.050    0.7489
  JAN-19-2015 04:15:00      0.000     0.050    0.7398
  JAN-19-2015 04:16:00      0.000     0.050    0.7314
  JAN-19-2015 04:17:00      0.000     0.050    0.7230
  JAN-19-2015 04:18:00      0.000     0.050    0.7146
  JAN-19-2015 04:19:00      0.000     0.050    0.7062
  JAN-19-2015 04:20:00      0.000     0.050    0.6978
  JAN-19-2015 04:21:00      0.000     0.050    0.6901
  JAN-19-2015 04:22:00      0.000     0.050    0.6824
  JAN-19-2015 04:23:00      0.000     0.050    0.6746
  JAN-19-2015 04:24:00      0.000     0.050    0.6669
  JAN-19-2015 04:25:00      0.000     0.050    0.6591
  JAN-19-2015 04:26:00      0.000     0.050    0.6520
  JAN-19-2015 04:27:00      0.000     0.050    0.6448
  JAN-19-2015 04:28:00      0.000     0.050    0.6376
  JAN-19-2015 04:29:00      0.000     0.050    0.6305
  JAN-19-2015 04:30:00      0.000     0.050    0.6233
  JAN-19-2015 04:31:00      0.000     0.050    0.6167
  JAN-19-2015 04:32:00      0.000     0.050    0.6100
  JAN-19-2015 04:33:00      0.000     0.050    0.6034
  JAN-19-2015 04:34:00      0.000     0.050    0.5967
  JAN-19-2015 04:35:00      0.000     0.050    0.5901
  JAN-19-2015 04:36:00      0.000     0.050    0.5839
  JAN-19-2015 04:37:00      0.000     0.050    0.5778
  JAN-19-2015 04:38:00      0.000     0.050    0.5716
  JAN-19-2015 04:39:00      0.000     0.050    0.5654
  JAN-19-2015 04:40:00      0.000     0.050    0.5593
  JAN-19-2015 04:41:00      0.000     0.050    0.5536
  JAN-19-2015 04:42:00      0.000     0.050    0.5478
  JAN-19-2015 04:43:00      0.000     0.050    0.5421
  JAN-19-2015 04:44:00      0.000     0.050    0.5364
  JAN-19-2015 04:45:00      0.000     0.050    0.5306
  JAN-19-2015 04:46:00      0.000     0.050    0.5253
  JAN-19-2015 04:47:00      0.000     0.050    0.5200
  JAN-19-2015 04:48:00      0.000     0.050    0.5146
  JAN-19-2015 04:49:00      0.000     0.050    0.5093
  JAN-19-2015 04:50:00      0.000     0.050    0.5040
  JAN-19-2015 04:51:00      0.000     0.050    0.4990
  JAN-19-2015 04:52:00      0.000     0.050    0.4940
  JAN-19-2015 04:53:00      0.000     0.050    0.4890
  JAN-19-2015 04:54:00      0.000     0.050    0.4841
  JAN-19-2015 04:55:00      0.000     0.050    0.4791
  JAN-19-2015 04:56:00      0.000     0.050    0.4745
  JAN-19-2015 04:57:00      0.000     0.050    0.4698
  JAN-19-2015 04:58:00      0.000     0.050    0.4652
  JAN-19-2015 04:59:00      0.000     0.050    0.4605
  JAN-19-2015 05:00:00      0.000     0.050    0.4559
  JAN-19-2015 05:01:00      0.000     0.050    0.4515
  JAN-19-2015 05:02:00      0.000     0.050    0.4472
  JAN-19-2015 05:03:00      0.000     0.050    0.4429
  JAN-19-2015 05:04:00      0.000     0.050    0.4385
  JAN-19-2015 05:05:00      0.000     0.050    0.4342
  JAN-19-2015 05:06:00      0.000     0.050    0.4301
  JAN-19-2015 05:07:00      0.000     0.050    0.4260
  JAN-19-2015 05:08:00      0.000     0.050    0.4220
  JAN-19-2015 05:09:00      0.000     0.050    0.4179
  JAN-19-2015 05:10:00      0.000     0.050    0.4139
  JAN-19-2015 05:11:00      0.000     0.050    0.4100
  JAN-19-2015 05:12:00      0.000     0.050    0.4062
  JAN-19-2015 05:13:00      0.000     0.050    0.4024
  JAN-19-2015 05:14:00      0.000     0.050    0.3986
  JAN-19-2015 05:15:00      0.000     0.050    0.3948
  JAN-19-2015 05:16:00      0.000     0.050    0.3912
  JAN-19-2015 05:17:00      0.000     0.050    0.3877
  JAN-19-2015 05:18:00      0.000     0.050    0.3841
  JAN-19-2015 05:19:00      0.000     0.050    0.3805
  JAN-19-2015 05:20:00      0.000     0.050    0.3770
  JAN-19-2015 05:21:00      0.000     0.050    0.3736
  JAN-19-2015 05:22:00      0.000     0.050    0.3702
  JAN-19-2015 05:23:00      0.000     0.050    0.3669
  JAN-19-2015 05:24:00      0.000     0.050    0.3635
  JAN-19-2015 05:25:00      0.000     0.050    0.3602
  JAN-19-2015 05:26:00      0.000     0.050    0.3570
  JAN-19-2015 05:27:00      0.000     0.050    0.3539
  JAN-19-2015 05:28:00      0.000     0.050    0.3507
  JAN-19-2015 05:29:00      0.000     0.050    0.3475
  JAN-19-2015 05:30:00      0.000     0.050    0.3444
  JAN-19-2015 05:31:00      0.000     0.050    0.3414
  JAN-19-2015 05:32:00      0.000     0.050    0.3384
  JAN-19-2015 05:33:00      0.000     0.050    0.3355
  JAN-19-2015 05:34:00      0.000     0.050    0.3325
  JAN-19-2015 05:35:00      0.000     0.050    0.3295
  JAN-19-2015 05:36:00      0.000     0.050    0.3267
  JAN-19-2015 05:37:00      0.000     0.050    0.3239
  JAN-19-2015 05:38:00      0.000     0.050    0.3211
  JAN-19-2015 05:39:00      0.000     0.050    0.3183
  JAN-19-2015 05:40:00      0.000     0.050    0.3155
  JAN-19-2015 05:41:00      0.000     0.050    0.3129
  JAN-19-2015 05:42:00      0.000     0.050    0.3103
  JAN-19-2015 05:43:00      0.000     0.050    0.3076
  JAN-19-2015 05:44:00      0.000     0.050    0.3050
  JAN-19-2015 05:45:00      0.000     0.050    0.3023
  JAN-19-2015 05:46:00      0.000     0.050    0.2998
  JAN-19-2015 05:47:00      0.000     0.050    0.2974
  JAN-19-2015 05:48:00      0.000     0.050    0.2949
  JAN-19-2015 05:49:00      0.000     0.050    0.2924
  JAN-19-2015 05:50:00      0.000     0.050    0.2899
  JAN-19-2015 05:51:00      0.000     0.050    0.2875
  JAN-19-2015 05:52:00      0.000     0.050    0.2852
  JAN-19-2015 05:53:00      0.000     0.050    0.2828
  JAN-19-2015 05:54:00      0.000     0.050    0.2804
  JAN-19-2015 05:55:00      0.000     0.050    0.2781
  JAN-19-2015 05:56:00      0.000     0.050    0.2759
  JAN-19-2015 05:57:00      0.000     0.050    0.2736
  JAN-19-2015 05:58:00      0.000     0.050    0.2714
  JAN-19-2015 05:59:00      0.000     0.050    0.2692
  JAN-19-2015 06:00:00      0.000     0.050    0.2670
  JAN-19-2015 06:01:00      0.000     0.050    0.2648
  JAN-19-2015 06:02:00      0.000     0.050    0.2627
  JAN-19-2015 06:03:00      0.000     0.050    0.2606
  JAN-19-2015 06:04:00      0.000     0.050    0.2585
  JAN-19-2015 06:05:00      0.000     0.050    0.2564
  JAN-19-2015 06:06:00      0.000     0.050    0.2544
  JAN-19-2015 06:07:00      0.000     0.050    0.2524
  JAN-19-2015 06:08:00      0.000     0.050    0.2504
  JAN-19-2015 06:09:00      0.000     0.050    0.2484
  JAN-19-2015 06:10:00      0.000     0.050    0.2464
  JAN-19-2015 06:11:00      0.000     0.050    0.2445
  JAN-19-2015 06:12:00      0.000     0.050    0.2426
  JAN-19-2015 06:13:00      0.000     0.050    0.2407
  JAN-19-2015 06:14:00      0.000     0.050    0.2388
  JAN-19-2015 06:15:00      0.000     0.050    0.2369
  JAN-19-2015 06:16:00      0.000     0.050    0.2352
  JAN-19-2015 06:17:00      0.000     0.050    0.2334
  JAN-19-2015 06:18:00      0.000     0.050    0.2316
  JAN-19-2015 06:19:00      0.000     0.050    0.2298
  JAN-19-2015 06:20:00      0.000     0.050    0.2280
  JAN-19-2015 06:21:00      0.000     0.050    0.2263
  JAN-19-2015 06:22:00      0.000     0.050    0.2245
  JAN-19-2015 06:23:00      0.000     0.050    0.2228
  JAN-19-2015 06:24:00      0.000     0.050    0.2211
  JAN-19-2015 06:25:00      0.000     0.050    0.2194
  JAN-19-2015 06:26:00      0.000     0.050    0.2178
  JAN-19-2015 06:27:00      0.000     0.050    0.2162
  JAN-19-2015 06:28:00      0.000     0.050    0.2146
  JAN-19-2015 06:29:00      0.000     0.050    0.2129
  JAN-19-2015 06:30:00      0.000     0.050    0.2113
  JAN-19-2015 06:31:00      0.000     0.050    0.2098
  JAN-19-2015 06:32:00      0.000     0.050    0.2082
  JAN-19-2015 06:33:00      0.000     0.050    0.2067
  JAN-19-2015 06:34:00      0.000     0.050    0.2051
  JAN-19-2015 06:35:00      0.000     0.050    0.2036
  JAN-19-2015 06:36:00      0.000     0.050    0.2021
  JAN-19-2015 06:37:00      0.000     0.050    0.2007
  JAN-19-2015 06:38:00      0.000     0.050    0.1992
  JAN-19-2015 06:39:00      0.000     0.050    0.1977
  JAN-19-2015 06:40:00      0.000     0.050    0.1963
  JAN-19-2015 06:41:00      0.000     0.050    0.1949
  JAN-19-2015 06:42:00      0.000     0.050    0.1935
  JAN-19-2015 06:43:00      0.000     0.050    0.1921
  JAN-19-2015 06:44:00      0.000     0.050    0.1907
  JAN-19-2015 06:45:00      0.000     0.050    0.1893
  JAN-19-2015 06:46:00      0.000     0.050    0.1879
  JAN-19-2015 06:47:00      0.000     0.050    0.1866
  JAN-19-2015 06:48:00      0.000     0.050    0.1853
  JAN-19-2015 06:49:00      0.000     0.050    0.1840
  JAN-19-2015 06:50:00      0.000     0.050    0.1826
  JAN-19-2015 06:51:00      0.000     0.050    0.1814
  JAN-19-2015 06:52:00      0.000     0.050    0.1801
  JAN-19-2015 06:53:00      0.000     0.050    0.1788
  JAN-19-2015 06:54:00      0.000     0.050    0.1775
  JAN-19-2015 06:55:00      0.000     0.050    0.1763
  JAN-19-2015 06:56:00      0.000     0.050    0.1751
  JAN-19-2015 06:57:00      0.000     0.050    0.1739
  JAN-19-2015 06:58:00      0.000     0.050    0.1726
  JAN-19-2015 06:59:00      0.000     0.050    0.1714
  JAN-19-2015 07:00:00      0.000     0.050    0.1702
  JAN-19-2015 07:01:00      0.000     0.050    0.1691
  JAN-19-2015 07:02:00      0.000     0.050    0.1679
  JAN-19-2015 07:03:00      0.000     0.050    0.1667
  JAN-19-2015 07:04:00      0.000     0.050    0.1656
  JAN-19-2015 07:05:00      0.000     0.050    0.1644
  JAN-19-2015 07:06:00      0.000     0.050    0.1633
  JAN-19-2015 07:07:00      0.000     0.050    0.1622
  JAN-19-2015 07:08:00      0.000     0.050    0.1611
  JAN-19-2015 07:09:00      0.000     0.050    0.1600
  JAN-19-2015 07:10:00      0.000     0.050    0.1589
  JAN-19-2015 07:11:00      0.000     0.050    0.1579
  JAN-19-2015 07:12:00      0.000     0.050    0.1568
  JAN-19-2015 07:13:00      0.000     0.050    0.1558
  JAN-19-2015 07:14:00      0.000     0.050    0.1547
  JAN-19-2015 07:15:00      0.000     0.050    0.1536
  JAN-19-2015 07:16:00      0.000     0.050    0.1526
  JAN-19-2015 07:17:00      0.000     0.050    0.1516
  JAN-19-2015 07:18:00      0.000     0.050    0.1506
  JAN-19-2015 07:19:00      0.000     0.050    0.1496
  JAN-19-2015 07:20:00      0.000     0.050    0.1486
  JAN-19-2015 07:21:00      0.000     0.050    0.1476
  JAN-19-2015 07:22:00      0.000     0.050    0.1467
  JAN-19-2015 07:23:00      0.000     0.050    0.1457
  JAN-19-2015 07:24:00      0.000     0.050    0.1447
  JAN-19-2015 07:25:00      0.000     0.050    0.1438
  JAN-19-2015 07:26:00      0.000     0.050    0.1429
  JAN-19-2015 07:27:00      0.000     0.050    0.1419
  JAN-19-2015 07:28:00      0.000     0.050    0.1410
  JAN-19-2015 07:29:00      0.000     0.050    0.1401
  JAN-19-2015 07:30:00      0.000     0.050    0.1392
  JAN-19-2015 07:31:00      0.000     0.050    0.1383
  JAN-19-2015 07:32:00      0.000     0.050    0.1374
  JAN-19-2015 07:33:00      0.000     0.050    0.1365
  JAN-19-2015 07:34:00      0.000     0.050    0.1356
  JAN-19-2015 07:35:00      0.000     0.050    0.1347
  JAN-19-2015 07:36:00      0.000     0.050    0.1339
  JAN-19-2015 07:37:00      0.000     0.050    0.1330
  JAN-19-2015 07:38:00      0.000     0.050    0.1322
  JAN-19-2015 07:39:00      0.000     0.050    0.1314
  JAN-19-2015 07:40:00      0.000     0.050    0.1305
  JAN-19-2015 07:41:00      0.000     0.050    0.1297
  JAN-19-2015 07:42:00      0.000     0.050    0.1289
  JAN-19-2015 07:43:00      0.000     0.050    0.1281
  JAN-19-2015 07:44:00      0.000     0.050    0.1273
  JAN-19-2015 07:45:00      0.000     0.050    0.1265
  JAN-19-2015 07:46:00      0.000     0.050    0.1257
  JAN-19-2015 07:47:00      0.000     0.050    0.1249
  JAN-19-2015 07:48:00      0.000     0.050    0.1241
  JAN-19-2015 07:49:00      0.000     0.050    0.1233
  JAN-19-2015 07:50:00      0.000     0.050    0.1226
  JAN-19-2015 07:51:00      0.000     0.050    0.1218
  JAN-19-2015 07:52:00      0.000     0.050    0.1211
  JAN-19-2015 07:53:00      0.000     0.050    0.1203
  JAN-19-2015 07:54:00      0.000     0.050    0.1196
  JAN-19-2015 07:55:00      0.000     0.050    0.1188
  JAN-19-2015 07:56:00      0.000     0.050    0.1181
  JAN-19-2015 07:57:00      0.000     0.050    0.1174
  JAN-19-2015 07:58:00      0.000     0.050    0.1167
  JAN-19-2015 07:59:00      0.000     0.050    0.1160
  JAN-19-2015 08:00:00      0.000     0.050    0.1153
  JAN-19-2015 08:01:00      0.000     0.050    0.1146
  JAN-19-2015 08:02:00      0.000     0.050    0.1139
  JAN-19-2015 08:03:00      0.000     0.050    0.1132
  JAN-19-2015 08:04:00      0.000     0.050    0.1125
  JAN-19-2015 08:05:00      0.000     0.050    0.1118
  JAN-19-2015 08:06:00      0.000     0.050    0.1112
  JAN-19-2015 08:07:00      0.000     0.050    0.1105
  JAN-19-2015 08:08:00      0.000     0.050    0.1098
  JAN-19-2015 08:09:00      0.000     0.050    0.1092
  JAN-19-2015 08:10:00      0.000     0.050    0.1085
  JAN-19-2015 08:11:00      0.000     0.050    0.1079
  JAN-19-2015 08:12:00      0.000     0.050    0.1073
  JAN-19-2015 08:13:00      0.000     0.050    0.1066
  JAN-19-2015 08:14:00      0.000     0.050    0.1060
  JAN-19-2015 08:15:00      0.000     0.050    0.1054
  JAN-19-2015 08:16:00      0.000     0.050    0.1048
  JAN-19-2015 08:17:00      0.000     0.050    0.1041
  JAN-19-2015 08:18:00      0.000     0.050    0.1035
  JAN-19-2015 08:19:00      0.000     0.050    0.1029
  JAN-19-2015 08:20:00      0.000     0.050    0.1023
  JAN-19-2015 08:21:00      0.000     0.050    0.1017
  JAN-19-2015 08:22:00      0.000     0.050    0.1011
  JAN-19-2015 08:23:00      0.000     0.050    0.1006
  JAN-19-2015 08:24:00      0.000     0.050    0.1000
  JAN-19-2015 08:25:00      0.000     0.050    0.0994
  JAN-19-2015 08:26:00      0.000     0.050    0.0988
  JAN-19-2015 08:27:00      0.000     0.050    0.0983
  JAN-19-2015 08:28:00      0.000     0.050    0.0977
  JAN-19-2015 08:29:00      0.000     0.050    0.0971
  JAN-19-2015 08:30:00      0.000     0.050    0.0966
  JAN-19-2015 08:31:00      0.000     0.050    0.0960
  JAN-19-2015 08:32:00      0.000     0.050    0.0955
  JAN-19-2015 08:33:00      0.000     0.050    0.0950
  JAN-19-2015 08:34:00      0.000     0.050    0.0944
  JAN-19-2015 08:35:00      0.000     0.050    0.0939
  JAN-19-2015 08:36:00      0.000     0.050    0.0934
  JAN-19-2015 08:37:00      0.000     0.050    0.0928
  JAN-19-2015 08:38:00      0.000     0.050    0.0923
  JAN-19-2015 08:39:00      0.000     0.050    0.0918
  JAN-19-2015 08:40:00      0.000     0.050    0.0913
  JAN-19-2015 08:41:00      0.000     0.050    0.0908
  JAN-19-2015 08:42:00      0.000     0.050    0.0903
  JAN-19-2015 08:43:00      0.000     0.050    0.0898
  JAN-19-2015 08:44:00      0.000     0.050    0.0893
  JAN-19-2015 08:45:00      0.000     0.050    0.0888
  JAN-19-2015 08:46:00      0.000     0.050    0.0883
  JAN-19-2015 08:47:00      0.000     0.050    0.0878
  JAN-19-2015 08:48:00      0.000     0.050    0.0873
  JAN-19-2015 08:49:00      0.000     0.050    0.0869
  JAN-19-2015 08:50:00      0.000     0.050    0.0864
  JAN-19-2015 08:51:00      0.000     0.050    0.0859
  JAN-19-2015 08:52:00      0.000     0.050    0.0855
  JAN-19-2015 08:53:00      0.000     0.050    0.0850
  JAN-19-2015 08:54:00      0.000     0.050    0.0845
  JAN-19-2015 08:55:00      0.000     0.050    0.0841
  JAN-19-2015 08:56:00      0.000     0.050    0.0836
  JAN-19-2015 08:57:00      0.000     0.050    0.0832
  JAN-19-2015 08:58:00      0.000     0.050    0.0827
  JAN-19-2015 08:59:00      0.000     0.050    0.0823
  JAN-19-2015 09:00:00      0.000     0.050    0.0819
  JAN-19-2015 09:01:00      0.000     0.050    0.0814
  JAN-19-2015 09:02:00      0.000     0.050    0.0810
  JAN-19-2015 09:03:00      0.000     0.050    0.0806
  JAN-19-2015 09:04:00      0.000     0.050    0.0801
  JAN-19-2015 09:05:00      0.000     0.050    0.0797
  JAN-19-2015 09:06:00      0.000     0.050    0.0793
  JAN-19-2015 09:07:00      0.000     0.050    0.0789
  JAN-19-2015 09:08:00      0.000     0.050    0.0785
  JAN-19-2015 09:09:00      0.000     0.050    0.0781
  JAN-19-2015 09:10:00      0.000     0.050    0.0777
  JAN-19-2015 09:11:00      0.000     0.050    0.0773
  JAN-19-2015 09:12:00      0.000     0.050    0.0769
  JAN-19-2015 09:13:00      0.000     0.050    0.0765
  JAN-19-2015 09:14:00      0.000     0.050    0.0761
  JAN-19-2015 09:15:00      0.000     0.050    0.0757
  JAN-19-2015 09:16:00      0.000     0.050    0.0753
  JAN-19-2015 09:17:00      0.000     0.050    0.0749
  JAN-19-2015 09:18:00      0.000     0.050    0.0745
  JAN-19-2015 09:19:00      0.000     0.050    0.0742
  JAN-19-2015 09:20:00      0.000     0.050    0.0738
  JAN-19-2015 09:21:00      0.000     0.050    0.0734
  JAN-19-2015 09:22:00      0.000     0.050    0.0731
  JAN-19-2015 09:23:00      0.000     0.050    0.0727
  JAN-19-2015 09:24:00      0.000     0.050    0.0723
  JAN-19-2015 09:25:00      0.000     0.050    0.0720
  JAN-19-2015 09:26:00      0.000     0.050    0.0716
  JAN-19-2015 09:27:00      0.000     0.050    0.0713
  JAN-19-2015 09:28:00      0.000     0.050    0.0709
  JAN-19-2015 09:29:00      0.000     0.050    0.0706
  JAN-19-2015 09:30:00      0.000     0.050    0.0702
  JAN-19-2015 09:31:00      0.000     0.050    0.0699
  JAN-19-2015 09:32:00      0.000     0.050    0.0695
  JAN-19-2015 09:33:00      0.000     0.050    0.0692
  JAN-19-2015 09:34:00      0.000     0.050    0.0689
  JAN-19-2015 09:35:00      0.000     0.050    0.0685
  JAN-19-2015 09:36:00      0.000     0.050    0.0682
  JAN-19-2015 09:37:00      0.000     0.050    0.0679
  JAN-19-2015 09:38:00      0.000     0.050    0.0676
  JAN-19-2015 09:39:00      0.000     0.050    0.0673
  JAN-19-2015 09:40:00      0.000     0.050    0.0669
  JAN-19-2015 09:41:00      0.000     0.050    0.0666
  JAN-19-2015 09:42:00      0.000     0.050    0.0663
  JAN-19-2015 09:43:00      0.000     0.050    0.0660
  JAN-19-2015 09:44:00      0.000     0.050    0.0657
  JAN-19-2015 09:45:00      0.000     0.018    0.0654
  JAN-19-2015 09:46:00      0.000     0.018    0.0651
  JAN-19-2015 09:47:00      0.000     0.018    0.0648
  JAN-19-2015 09:48:00      0.000     0.018    0.0645
  JAN-19-2015 09:49:00      0.000     0.018    0.0642
  JAN-19-2015 09:50:00      0.000     0.000    0.0639
  JAN-19-2015 09:51:00      0.000     0.000    0.0636
  JAN-19-2015 09:52:00      0.000     0.000    0.0634
  JAN-19-2015 09:53:00      0.000     0.000    0.0631
  JAN-19-2015 09:54:00      0.000     0.000    0.0628
  JAN-19-2015 09:55:00      0.000     0.000    0.0625
  JAN-19-2015 09:56:00      0.000     0.000    0.0622
  JAN-19-2015 09:57:00      0.000     0.000    0.0619
  JAN-19-2015 09:58:00      0.000     0.000    0.0617
  JAN-19-2015 09:59:00      0.000     0.000    0.0614
  JAN-19-2015 10:00:00      0.000     0.000    0.0611
  JAN-19-2015 10:01:00      0.000     0.000    0.0608
  JAN-19-2015 10:02:00      0.000     0.000    0.0606
  JAN-19-2015 10:03:00      0.000     0.000    0.0603
  JAN-19-2015 10:04:00      0.000     0.000    0.0600
  JAN-19-2015 10:05:00      0.000     0.000    0.0598
  JAN-19-2015 10:06:00      0.000     0.000    0.0595
  JAN-19-2015 10:07:00      0.000     0.000    0.0592
  JAN-19-2015 10:08:00      0.000     0.000    0.0590
  JAN-19-2015 10:09:00      0.000     0.000    0.0587
  JAN-19-2015 10:10:00      0.000     0.000    0.0585
  JAN-19-2015 10:11:00      0.000     0.000    0.0582
  JAN-19-2015 10:12:00      0.000     0.000    0.0580
  JAN-19-2015 10:13:00      0.000     0.000    0.0577
  JAN-19-2015 10:14:00      0.000     0.000    0.0574
  JAN-19-2015 10:15:00      0.000     0.000    0.0572
  JAN-19-2015 10:16:00      0.000     0.000    0.0569
  JAN-19-2015 10:17:00      0.000     0.000    0.0567
  JAN-19-2015 10:18:00      0.000     0.000    0.0565
  JAN-19-2015 10:19:00      0.000     0.000    0.0562
  JAN-19-2015 10:20:00      0.000     0.000    0.0560
  JAN-19-2015 10:21:00      0.000     0.000    0.0557
  JAN-19-2015 10:22:00      0.000     0.000    0.0555
  JAN-19-2015 10:23:00      0.000     0.000    0.0553
  JAN-19-2015 10:24:00      0.000     0.000    0.0550
  JAN-19-2015 10:25:00      0.000     0.000    0.0548
  JAN-19-2015 10:26:00      0.000     0.000    0.0545
  JAN-19-2015 10:27:00      0.000     0.000    0.0543
  JAN-19-2015 10:28:00      0.000     0.000    0.0541
  JAN-19-2015 10:29:00      0.000     0.000    0.0539
  JAN-19-2015 10:30:00      0.000     0.000    0.0536
  JAN-19-2015 10:31:00      0.000     0.000    0.0534
  JAN-19-2015 10:32:00      0.000     0.000    0.0532
  JAN-19-2015 10:33:00      0.000     0.000    0.0529
  JAN-19-2015 10:34:00      0.000     0.000    0.0527
  JAN-19-2015 10:35:00      0.000     0.000    0.0525
  JAN-19-2015 10:36:00      0.000     0.000    0.0523
  JAN-19-2015 10:37:00      0.000     0.000    0.0521
  JAN-19-2015 10:38:00      0.000     0.000    0.0518
  JAN-19-2015 10:39:00      0.000     0.000    0.0516
  JAN-19-2015 10:40:00      0.000     0.000    0.0514
  JAN-19-2015 10:41:00      0.000     0.000    0.0512
  JAN-19-2015 10:42:00      0.000     0.000    0.0510
  JAN-19-2015 10:43:00      0.000     0.000    0.0508
  JAN-19-2015 10:44:00      0.000     0.000    0.0506
  JAN-19-2015 10:45:00      0.000     0.000    0.0504
  JAN-19-2015 10:46:00      0.000     0.000    0.0501
  JAN-19-2015 10:47:00      0.000     0.000    0.0499
  JAN-19-2015 10:48:00      0.000     0.000    0.0497
  JAN-19-2015 10:49:00      0.000     0.000    0.0495
  JAN-19-2015 10:50:00      0.000     0.000    0.0493
  JAN-19-2015 10:51:00      0.000     0.000    0.0491
  JAN-19-2015 10:52:00      0.000     0.000    0.0489
  JAN-19-2015 10:53:00      0.000     0.000    0.0487
  JAN-19-2015 10:54:00      0.000     0.000    0.0485
  JAN-19-2015 10:55:00      0.000     0.000    0.0483
  JAN-19-2015 10:56:00      0.000     0.000    0.0481
  JAN-19-2015 10:57:00      0.000     0.000    0.0479
  JAN-19-2015 10:58:00      0.000     0.000    0.0477
  JAN-19-2015 10:59:00      0.000     0.000    0.0476
  JAN-19-2015 11:00:00      0.000     0.000    0.0474
  JAN-19-2015 11:01:00      0.000     0.000    0.0472
  JAN-19-2015 11:02:00      0.000     0.000    0.0470
  JAN-19-2015 11:03:00      0.000     0.000    0.0468
  JAN-19-2015 11:04:00      0.000     0.000    0.0466
  JAN-19-2015 11:05:00      0.000     0.000    0.0464
  JAN-19-2015 11:06:00      0.000     0.000    0.0462
  JAN-19-2015 11:07:00      0.000     0.000    0.0461
  JAN-19-2015 11:08:00      0.000     0.000    0.0459
  JAN-19-2015 11:09:00      0.000     0.000    0.0457
  JAN-19-2015 11:10:00      0.000     0.000    0.0455
  JAN-19-2015 11:11:00      0.000     0.000    0.0453
  JAN-19-2015 11:12:00      0.000     0.000    0.0451
  JAN-19-2015 11:13:00      0.000     0.000    0.0450
  JAN-19-2015 11:14:00      0.000     0.000    0.0448
  JAN-19-2015 11:15:00      0.000     0.000    0.0446
  JAN-19-2015 11:16:00      0.000     0.000    0.0444
  JAN-19-2015 11:17:00      0.000     0.000    0.0443
  JAN-19-2015 11:18:00      0.000     0.000    0.0441
  JAN-19-2015 11:19:00      0.000     0.000    0.0439
  JAN-19-2015 11:20:00      0.000     0.000    0.0437
  JAN-19-2015 11:21:00      0.000     0.000    0.0436
  JAN-19-2015 11:22:00      0.000     0.000    0.0434
  JAN-19-2015 11:23:00      0.000     0.000    0.0432
  JAN-19-2015 11:24:00      0.000     0.000    0.0431
  JAN-19-2015 11:25:00      0.000     0.000    0.0429
  JAN-19-2015 11:26:00      0.000     0.000    0.0427
  JAN-19-2015 11:27:00      0.000     0.000    0.0426
  JAN-19-2015 11:28:00      0.000     0.000    0.0424
  JAN-19-2015 11:29:00      0.000     0.000    0.0422
  JAN-19-2015 11:30:00      0.000     0.000    0.0421
  JAN-19-2015 11:31:00      0.000     0.000    0.0419
  JAN-19-2015 11:32:00      0.000     0.000    0.0418
  JAN-19-2015 11:33:00      0.000     0.000    0.0416
  JAN-19-2015 11:34:00      0.000     0.000    0.0414
  JAN-19-2015 11:35:00      0.000     0.000    0.0413
  JAN-19-2015 11:36:00      0.000     0.000    0.0411
  JAN-19-2015 11:37:00      0.000     0.000    0.0410
  JAN-19-2015 11:38:00      0.000     0.000    0.0408
  JAN-19-2015 11:39:00      0.000     0.000    0.0407
  JAN-19-2015 11:40:00      0.000     0.000    0.0405
  JAN-19-2015 11:41:00      0.000     0.000    0.0403
  JAN-19-2015 11:42:00      0.000     0.000    0.0402
  JAN-19-2015 11:43:00      0.000     0.000    0.0400
  JAN-19-2015 11:44:00      0.000     0.000    0.0399
  JAN-19-2015 11:45:00      0.000     0.000    0.0397
  JAN-19-2015 11:46:00      0.000     0.000    0.0396
  JAN-19-2015 11:47:00      0.000     0.000    0.0394
  JAN-19-2015 11:48:00      0.000     0.000    0.0393
  JAN-19-2015 11:49:00      0.000     0.000    0.0392
  JAN-19-2015 11:50:00      0.000     0.000    0.0390
  JAN-19-2015 11:51:00      0.000     0.000    0.0389
  JAN-19-2015 11:52:00      0.000     0.000    0.0387
  JAN-19-2015 11:53:00      0.000     0.000    0.0386
  JAN-19-2015 11:54:00      0.000     0.000    0.0384
  JAN-19-2015 11:55:00      0.000     0.000    0.0383
  JAN-19-2015 11:56:00      0.000     0.000    0.0381
  JAN-19-2015 11:57:00      0.000     0.000    0.0380
  JAN-19-2015 11:58:00      0.000     0.000    0.0379
  JAN-19-2015 11:59:00      0.000     0.000    0.0377
  JAN-19-2015 12:00:00      0.000     0.000    0.0376
  JAN-19-2015 12:01:00      0.000     0.000    0.0374
  JAN-19-2015 12:02:00      0.000     0.000    0.0373
  JAN-19-2015 12:03:00      0.000     0.000    0.0372
  JAN-19-2015 12:04:00      0.000     0.000    0.0370
  JAN-19-2015 12:05:00      0.000     0.000    0.0369
  JAN-19-2015 12:06:00      0.000     0.000    0.0368
  JAN-19-2015 12:07:00      0.000     0.000    0.0366
  JAN-19-2015 12:08:00      0.000     0.000    0.0365
  JAN-19-2015 12:09:00      0.000     0.000    0.0364
  JAN-19-2015 12:10:00      0.000     0.000    0.0362
  JAN-19-2015 12:11:00      0.000     0.000    0.0361
  JAN-19-2015 12:12:00      0.000     0.000    0.0360
  JAN-19-2015 12:13:00      0.000     0.000    0.0358
  JAN-19-2015 12:14:00      0.000     0.000    0.0357
  JAN-19-2015 12:15:00      0.000     0.000    0.0356
  JAN-19-2015 12:16:00      0.000     0.000    0.0355
  JAN-19-2015 12:17:00      0.000     0.000    0.0353
  JAN-19-2015 12:18:00      0.000     0.000    0.0352
  JAN-19-2015 12:19:00      0.000     0.000    0.0351
  JAN-19-2015 12:20:00      0.000     0.000    0.0350
  JAN-19-2015 12:21:00      0.000     0.000    0.0348
  JAN-19-2015 12:22:00      0.000     0.000    0.0347
  JAN-19-2015 12:23:00      0.000     0.000    0.0346
  JAN-19-2015 12:24:00      0.000     0.000    0.0345
  JAN-19-2015 12:25:00      0.000     0.000    0.0343
  JAN-19-2015 12:26:00      0.000     0.000    0.0342
  JAN-19-2015 12:27:00      0.000     0.000    0.0341
  JAN-19-2015 12:28:00      0.000     0.000    0.0340
  JAN-19-2015 12:29:00      0.000     0.000    0.0339
  JAN-19-2015 12:30:00      0.000     0.000    0.0337
  JAN-19-2015 12:31:00      0.000     0.000    0.0336
  JAN-19-2015 12:32:00      0.000     0.000    0.0335
  JAN-19-2015 12:33:00      0.000     0.000    0.0334
  JAN-19-2015 12:34:00      0.000     0.000    0.0333
  JAN-19-2015 12:35:00      0.000     0.000    0.0331
  JAN-19-2015 12:36:00      0.000     0.000    0.0330
  JAN-19-2015 12:37:00      0.000     0.000    0.0329
  JAN-19-2015 12:38:00      0.000     0.000    0.0328
  JAN-19-2015 12:39:00      0.000     0.000    0.0327
  JAN-19-2015 12:40:00      0.000     0.000    0.0326
  JAN-19-2015 12:41:00      0.000     0.000    0.0325
  JAN-19-2015 12:42:00      0.000     0.000    0.0323
  JAN-19-2015 12:43:00      0.000     0.000    0.0322
  JAN-19-2015 12:44:00      0.000     0.000    0.0321
  JAN-19-2015 12:45:00      0.000     0.000    0.0320
  JAN-19-2015 12:46:00      0.000     0.000    0.0319
  JAN-19-2015 12:47:00      0.000     0.000    0.0318
  JAN-19-2015 12:48:00      0.000     0.000    0.0317
  JAN-19-2015 12:49:00      0.000     0.000    0.0316
  JAN-19-2015 12:50:00      0.000     0.000    0.0315
  JAN-19-2015 12:51:00      0.000     0.000    0.0314
  JAN-19-2015 12:52:00      0.000     0.000    0.0313
  JAN-19-2015 12:53:00      0.000     0.000    0.0311
  JAN-19-2015 12:54:00      0.000     0.000    0.0310
  JAN-19-2015 12:55:00      0.000     0.000    0.0309
  JAN-19-2015 12:56:00      0.000     0.000    0.0308
  JAN-19-2015 12:57:00      0.000     0.000    0.0307
  JAN-19-2015 12:58:00      0.000     0.000    0.0306
  JAN-19-2015 12:59:00      0.000     0.000    0.0305
  JAN-19-2015 13:00:00      0.000     0.000    0.0304
  JAN-19-2015 13:01:00      0.000     0.000    0.0303
  JAN-19-2015 13:02:00      0.000     0.000    0.0302
  JAN-19-2015 13:03:00      0.000     0.000    0.0301
  JAN-19-2015 13:04:00      0.000     0.000    0.0300
  JAN-19-2015 13:05:00      0.000     0.000    0.0299
  JAN-19-2015 13:06:00      0.000     0.000    0.0298
  JAN-19-2015 13:07:00      0.000     0.000    0.0297
  JAN-19-2015 13:08:00      0.000     0.000    0.0296
  JAN-19-2015 13:09:00      0.000     0.000    0.0295
  JAN-19-2015 13:10:00      0.000     0.000    0.0294
  JAN-19-2015 13:11:00      0.000     0.000    0.0293
  JAN-19-2015 13:12:00      0.000     0.000    0.0292
  JAN-19-2015 13:13:00      0.000     0.000    0.0291
  JAN-19-2015 13:14:00      0.000     0.000    0.0290
  JAN-19-2015 13:15:00      0.000     0.000    0.0289
  JAN-19-2015 13:16:00      0.000     0.000    0.0288
  JAN-19-2015 13:17:00      0.000     0.000    0.0287
  JAN-19-2015 13:18:00      0.000     0.000    0.0286
  JAN-19-2015 13:19:00      0.000     0.000    0.0285
  JAN-19-2015 13:20:00      0.000     0.000    0.0285
  JAN-19-2015 13:21:00      0.000     0.000    0.0284
  JAN-19-2015 13:22:00      0.000     0.000    0.0283
  JAN-19-2015 13:23:00      0.000     0.000    0.0282
  JAN-19-2015 13:24:00      0.000     0.000    0.0281
  JAN-19-2015 13:25:00      0.000     0.000    0.0280
  JAN-19-2015 13:26:00      0.000     0.000    0.0279
  JAN-19-2015 13:27:00      0.000     0.000    0.0278
  JAN-19-2015 13:28:00      0.000     0.000    0.0277
  JAN-19-2015 13:29:00      0.000     0.000    0.0276
  JAN-19-2015 13:30:00      0.000     0.000    0.0275
  JAN-19-2015 13:31:00      0.000     0.000    0.0274
  JAN-19-2015 13:32:00      0.000     0.000    0.0274
  JAN-19-2015 13:33:00      0.000     0.000    0.0273
  JAN-19-2015 13:34:00      0.000     0.000    0.0272
  JAN-19-2015 13:35:00      0.000     0.000    0.0271
  JAN-19-2015 13:36:00      0.000     0.000    0.0270
  JAN-19-2015 13:37:00      0.000     0.000    0.0269
  JAN-19-2015 13:38:00      0.000     0.000    0.0268
  JAN-19-2015 13:39:00      0.000     0.000    0.0267
  JAN-19-2015 13:40:00      0.000     0.000    0.0267
  JAN-19-2015 13:41:00      0.000     0.000    0.0266
  JAN-19-2015 13:42:00      0.000     0.000    0.0265
  JAN-19-2015 13:43:00      0.000     0.000    0.0264
  JAN-19-2015 13:44:00      0.000     0.000    0.0263
  JAN-19-2015 13:45:00      0.000     0.000    0.0262
  JAN-19-2015 13:46:00      0.000     0.000    0.0262
  JAN-19-2015 13:47:00      0.000     0.000    0.0261
  JAN-19-2015 13:48:00      0.000     0.000    0.0260
  JAN-19-2015 13:49:00      0.000     0.000    0.0259
  JAN-19-2015 13:50:00      0.000     0.000    0.0258
  JAN-19-2015 13:51:00      0.000     0.000    0.0257
  JAN-19-2015 13:52:00      0.000     0.000    0.0257
  JAN-19-2015 13:53:00      0.000     0.000    0.0256
  JAN-19-2015 13:54:00      0.000     0.000    0.0255
  JAN-19-2015 13:55:00      0.000     0.000    0.0254
  JAN-19-2015 13:56:00      0.000     0.000    0.0253
  JAN-19-2015 13:57:00      0.000     0.000    0.0253
  JAN-19-2015 13:58:00      0.000     0.000    0.0252
  JAN-19-2015 13:59:00      0.000     0.000    0.0251
  JAN-19-2015 14:00:00      0.000     0.000    0.0250
  JAN-19-2015 14:01:00      0.000     0.000    0.0249
  JAN-19-2015 14:02:00      0.000     0.000    0.0249
  JAN-19-2015 14:03:00      0.000     0.000    0.0248
  JAN-19-2015 14:04:00      0.000     0.000    0.0247
  JAN-19-2015 14:05:00      0.000     0.000    0.0246
  JAN-19-2015 14:06:00      0.000     0.000    0.0246
  JAN-19-2015 14:07:00      0.000     0.000    0.0245
  JAN-19-2015 14:08:00      0.000     0.000    0.0244
  JAN-19-2015 14:09:00      0.000     0.000    0.0243
  JAN-19-2015 14:10:00      0.000     0.000    0.0243
  JAN-19-2015 14:11:00      0.000     0.000    0.0242
  JAN-19-2015 14:12:00      0.000     0.000    0.0241
  JAN-19-2015 14:13:00      0.000     0.000    0.0240
  JAN-19-2015 14:14:00      0.000     0.000    0.0240
  JAN-19-2015 14:15:00      0.000     0.000    0.0239
  JAN-19-2015 14:16:00      0.000     0.000    0.0238
  JAN-19-2015 14:17:00      0.000     0.000    0.0237
  JAN-19-2015 14:18:00      0.000     0.000    0.0237
  JAN-19-2015 14:19:00      0.000     0.000    0.0236
  JAN-19-2015 14:20:00      0.000     0.000    0.0235
  JAN-19-2015 14:21:00      0.000     0.000    0.0235
  JAN-19-2015 14:22:00      0.000     0.000    0.0234
  JAN-19-2015 14:23:00      0.000     0.000    0.0233
  JAN-19-2015 14:24:00      0.000     0.000    0.0232
  JAN-19-2015 14:25:00      0.000     0.000    0.0232
  JAN-19-2015 14:26:00      0.000     0.000    0.0231
  JAN-19-2015 14:27:00      0.000     0.000    0.0230
  JAN-19-2015 14:28:00      0.000     0.000    0.0230
  JAN-19-2015 14:29:00      0.000     0.000    0.0229
  JAN-19-2015 14:30:00      0.000     0.000    0.0228
  JAN-19-2015 14:31:00      0.000     0.000    0.0228
  JAN-19-2015 14:32:00      0.000     0.000    0.0227
  JAN-19-2015 14:33:00      0.000     0.000    0.0226
  JAN-19-2015 14:34:00      0.000     0.000    0.0225
  JAN-19-2015 14:35:00      0.000     0.000    0.0225
  JAN-19-2015 14:36:00      0.000     0.000    0.0224
  JAN-19-2015 14:37:00      0.000     0.000    0.0223
  JAN-19-2015 14:38:00      0.000     0.000    0.0223
  JAN-19-2015 14:39:00      0.000     0.000    0.0222
  JAN-19-2015 14:40:00      0.000     0.000    0.0221
  JAN-19-2015 14:41:00      0.000     0.000    0.0221
  JAN-19-2015 14:42:00      0.000     0.000    0.0220
  JAN-19-2015 14:43:00      0.000     0.000    0.0220
  JAN-19-2015 14:44:00      0.000     0.000    0.0219
  JAN-19-2015 14:45:00      0.000     0.000    0.0218
  JAN-19-2015 14:46:00      0.000     0.000    0.0218
  JAN-19-2015 14:47:00      0.000     0.000    0.0217
  JAN-19-2015 14:48:00      0.000     0.000    0.0216
  JAN-19-2015 14:49:00      0.000     0.000    0.0216
  JAN-19-2015 14:50:00      0.000     0.000    0.0215
  JAN-19-2015 14:51:00      0.000     0.000    0.0214
  JAN-19-2015 14:52:00      0.000     0.000    0.0214
  JAN-19-2015 14:53:00      0.000     0.000    0.0213
  JAN-19-2015 14:54:00      0.000     0.000    0.0213
  JAN-19-2015 14:55:00      0.000     0.000    0.0212
  JAN-19-2015 14:56:00      0.000     0.000    0.0211
  JAN-19-2015 14:57:00      0.000     0.000    0.0211
  JAN-19-2015 14:58:00      0.000     0.000    0.0210
  JAN-19-2015 14:59:00      0.000     0.000    0.0209
  JAN-19-2015 15:00:00      0.000     0.000    0.0209
  JAN-19-2015 15:01:00      0.000     0.000    0.0208
  JAN-19-2015 15:02:00      0.000     0.000    0.0208
  JAN-19-2015 15:03:00      0.000     0.000    0.0207
  JAN-19-2015 15:04:00      0.000     0.000    0.0206
  JAN-19-2015 15:05:00      0.000     0.000    0.0206
  JAN-19-2015 15:06:00      0.000     0.000    0.0205
  JAN-19-2015 15:07:00      0.000     0.000    0.0205
  JAN-19-2015 15:08:00      0.000     0.000    0.0204
  JAN-19-2015 15:09:00      0.000     0.000    0.0203
  JAN-19-2015 15:10:00      0.000     0.000    0.0203
  JAN-19-2015 15:11:00      0.000     0.000    0.0202
  JAN-19-2015 15:12:00      0.000     0.000    0.0202
  JAN-19-2015 15:13:00      0.000     0.000    0.0201
  JAN-19-2015 15:14:00      0.000     0.000    0.0201
  JAN-19-2015 15:15:00      0.000     0.000    0.0200
  JAN-19-2015 15:16:00      0.000     0.000    0.0199
  JAN-19-2015 15:17:00      0.000     0.000    0.0199
  JAN-19-2015 15:18:00      0.000     0.000    0.0198
  JAN-19-2015 15:19:00      0.000     0.000    0.0198
  JAN-19-2015 15:20:00      0.000     0.000    0.0197
  JAN-19-2015 15:21:00      0.000     0.000    0.0197
  JAN-19-2015 15:22:00      0.000     0.000    0.0196
  JAN-19-2015 15:23:00      0.000     0.000    0.0195
  JAN-19-2015 15:24:00      0.000     0.000    0.0195
  JAN-19-2015 15:25:00      0.000     0.000    0.0194
  JAN-19-2015 15:26:00      0.000     0.000    0.0194
  JAN-19-2015 15:27:00      0.000     0.000    0.0193
  JAN-19-2015 15:28:00      0.000     0.000    0.0193
  JAN-19-2015 15:29:00      0.000     0.000    0.0192
  JAN-19-2015 15:30:00      0.000     0.000    0.0192
  JAN-19-2015 15:31:00      0.000     0.000    0.0191
  JAN-19-2015 15:32:00      0.000     0.000    0.0191
  JAN-19-2015 15:33:00      0.000     0.000    0.0190
  JAN-19-2015 15:34:00      0.000     0.000    0.0190
  JAN-19-2015 15:35:00      0.000     0.000    0.0189
  JAN-19-2015 15:36:00      0.000     0.000    0.0188
  JAN-19-2015 15:37:00      0.000     0.000    0.0188
  JAN-19-2015 15:38:00      0.000     0.000    0.0187
  JAN-19-2015 15:39:00      0.000     0.000    0.0187
  JAN-19-2015 15:40:00      0.000     0.000    0.0186
  JAN-19-2015 15:41:00      0.000     0.000    0.0186
  JAN-19-2015 15:42:00      0.000     0.000    0.0185
  JAN-19-2015 15:43:00      0.000     0.000    0.0185
  JAN-19-2015 15:44:00      0.000     0.000    0.0184
  JAN-19-2015 15:45:00      0.000     0.000    0.0184
  JAN-19-2015 15:46:00      0.000     0.000    0.0183
  JAN-19-2015 15:47:00      0.000     0.000    0.0183
  JAN-19-2015 15:48:00      0.000     0.000    0.0182
  JAN-19-2015 15:49:00      0.000     0.000    0.0182
  JAN-19-2015 15:50:00      0.000     0.000    0.0181
  JAN-19-2015 15:51:00      0.000     0.000    0.0181
  JAN-19-2015 15:52:00      0.000     0.000    0.0180
  JAN-19-2015 15:53:00      0.000     0.000    0.0180
  JAN-19-2015 15:54:00      0.000     0.000    0.0179
  JAN-19-2015 15:55:00      0.000     0.000    0.0179
  JAN-19-2015 15:56:00      0.000     0.000    0.0178
  JAN-19-2015 15:57:00      0.000     0.000    0.0178
  JAN-19-2015 15:58:00      0.000     0.000    0.0177
  JAN-19-2015 15:59:00      0.000     0.000    0.0177
  JAN-19-2015 16:00:00      0.000     0.000    0.0176
  JAN-19-2015 16:01:00      0.000     0.000    0.0176
  JAN-19-2015 16:02:00      0.000     0.000    0.0175
  JAN-19-2015 16:03:00      0.000     0.000    0.0175
  JAN-19-2015 16:04:00      0.000     0.000    0.0174
  JAN-19-2015 16:05:00      0.000     0.000    0.0174
  JAN-19-2015 16:06:00      0.000     0.000    0.0174
  JAN-19-2015 16:07:00      0.000     0.000    0.0173
  JAN-19-2015 16:08:00      0.000     0.000    0.0173
  JAN-19-2015 16:09:00      0.000     0.000    0.0172
  JAN-19-2015 16:10:00      0.000     0.000    0.0172
  JAN-19-2015 16:11:00      0.000     0.000    0.0171
  JAN-19-2015 16:12:00      0.000     0.000    0.0171
  JAN-19-2015 16:13:00      0.000     0.000    0.0170
  JAN-19-2015 16:14:00      0.000     0.000    0.0170
  JAN-19-2015 16:15:00      0.000     0.000    0.0169
  JAN-19-2015 16:16:00      0.000     0.000    0.0169
  JAN-19-2015 16:17:00      0.000     0.000    0.0168
  JAN-19-2015 16:18:00      0.000     0.000    0.0168
  JAN-19-2015 16:19:00      0.000     0.000    0.0168
  JAN-19-2015 16:20:00      0.000     0.000    0.0167
  JAN-19-2015 16:21:00      0.000     0.000    0.0167
  JAN-19-2015 16:22:00      0.000     0.000    0.0166
  JAN-19-2015 16:23:00      0.000     0.000    0.0166
  JAN-19-2015 16:24:00      0.000     0.000    0.0165
  JAN-19-2015 16:25:00      0.000     0.000    0.0165
  JAN-19-2015 16:26:00      0.000     0.000    0.0165
  JAN-19-2015 16:27:00      0.000     0.000    0.0164
  JAN-19-2015 16:28:00      0.000     0.000    0.0164
  JAN-19-2015 16:29:00      0.000     0.000    0.0163
  JAN-19-2015 16:30:00      0.000     0.000    0.0163
  JAN-19-2015 16:31:00      0.000     0.000    0.0162
  JAN-19-2015 16:32:00      0.000     0.000    0.0162
  JAN-19-2015 16:33:00      0.000     0.000    0.0162
  JAN-19-2015 16:34:00      0.000     0.000    0.0161
  JAN-19-2015 16:35:00      0.000     0.000    0.0161
  JAN-19-2015 16:36:00      0.000     0.000    0.0160
  JAN-19-2015 16:37:00      0.000     0.000    0.0160
  JAN-19-2015 16:38:00      0.000     0.000    0.0159
  JAN-19-2015 16:39:00      0.000     0.000    0.0159
  JAN-19-2015 16:40:00      0.000     0.000    0.0159
  JAN-19-2015 16:41:00      0.000     0.000    0.0158
  JAN-19-2015 16:42:00      0.000     0.000    0.0158
  JAN-19-2015 16:43:00      0.000     0.000    0.0157
  JAN-19-2015 16:44:00      0.000     0.000    0.0157
  JAN-19-2015 16:45:00      0.000     0.000    0.0157
  JAN-19-2015 16:46:00      0.000     0.000    0.0156
  JAN-19-2015 16:47:00      0.000     0.000    0.0156
  JAN-19-2015 16:48:00      0.000     0.000    0.0155
  JAN-19-2015 16:49:00      0.000     0.000    0.0155
  JAN-19-2015 16:50:00      0.000     0.000    0.0155
  JAN-19-2015 16:51:00      0.000     0.000    0.0154
  JAN-19-2015 16:52:00      0.000     0.000    0.0154
  JAN-19-2015 16:53:00      0.000     0.000    0.0153
  JAN-19-2015 16:54:00      0.000     0.000    0.0153
  JAN-19-2015 16:55:00      0.000     0.000    0.0153
  JAN-19-2015 16:56:00      0.000     0.000    0.0152
  JAN-19-2015 16:57:00      0.000     0.000    0.0152
  JAN-19-2015 16:58:00      0.000     0.000    0.0151
  JAN-19-2015 16:59:00      0.000     0.000    0.0151
  JAN-19-2015 17:00:00      0.000     0.000    0.0151
  JAN-19-2015 17:01:00      0.000     0.000    0.0150
  JAN-19-2015 17:02:00      0.000     0.000    0.0150
  JAN-19-2015 17:03:00      0.000     0.000    0.0149
  JAN-19-2015 17:04:00      0.000     0.000    0.0149
  JAN-19-2015 17:05:00      0.000     0.000    0.0149
  JAN-19-2015 17:06:00      0.000     0.000    0.0148
  JAN-19-2015 17:07:00      0.000     0.000    0.0148
  JAN-19-2015 17:08:00      0.000     0.000    0.0148
  JAN-19-2015 17:09:00      0.000     0.000    0.0147
  JAN-19-2015 17:10:00      0.000     0.000    0.0147
  JAN-19-2015 17:11:00      0.000     0.000    0.0146
  JAN-19-2015 17:12:00      0.000     0.000    0.0146
  JAN-19-2015 17:13:00      0.000     0.000    0.0146
  JAN-19-2015 17:14:00      0.000     0.000    0.0145
  JAN-19-2015 17:15:00      0.000     0.000    0.0145
  JAN-19-2015 17:16:00      0.000     0.000    0.0145
  JAN-19-2015 17:17:00      0.000     0.000    0.0144
  JAN-19-2015 17:18:00      0.000     0.000    0.0144
  JAN-19-2015 17:19:00      0.000     0.000    0.0144
  JAN-19-2015 17:20:00      0.000     0.000    0.0143
  JAN-19-2015 17:21:00      0.000     0.000    0.0143
  JAN-19-2015 17:22:00      0.000     0.000    0.0142
  JAN-19-2015 17:23:00      0.000     0.000    0.0142
  JAN-19-2015 17:24:00      0.000     0.000    0.0142
  JAN-19-2015 17:25:00      0.000     0.000    0.0141
  JAN-19-2015 17:26:00      0.000     0.000    0.0141
  JAN-19-2015 17:27:00      0.000     0.000    0.0141
  JAN-19-2015 17:28:00      0.000     0.000    0.0140
  JAN-19-2015 17:29:00      0.000     0.000    0.0140
  JAN-19-2015 17:30:00      0.000     0.000    0.0140
  JAN-19-2015 17:31:00      0.000     0.000    0.0139
  JAN-19-2015 17:32:00      0.000     0.000    0.0139
  JAN-19-2015 17:33:00      0.000     0.000    0.0139
  JAN-19-2015 17:34:00      0.000     0.000    0.0138
  JAN-19-2015 17:35:00      0.000     0.000    0.0138
  JAN-19-2015 17:36:00      0.000     0.000    0.0138
  JAN-19-2015 17:37:00      0.000     0.000    0.0137
  JAN-19-2015 17:38:00      0.000     0.000    0.0137
  JAN-19-2015 17:39:00      0.000     0.000    0.0137
  JAN-19-2015 17:40:00      0.000     0.000    0.0136
  JAN-19-2015 17:41:00      0.000     0.000    0.0136
  JAN-19-2015 17:42:00      0.000     0.000    0.0136
  JAN-19-2015 17:43:00      0.000     0.000    0.0135
  JAN-19-2015 17:44:00      0.000     0.000    0.0135
  JAN-19-2015 17:45:00      0.000     0.000    0.0135
  JAN-19-2015 17:46:00      0.000     0.000    0.0134
  JAN-19-2015 17:47:00      0.000     0.000    0.0134
  JAN-19-2015 17:48:00      0.000     0.000    0.0134
  JAN-19-2015 17:49:00      0.000     0.000    0.0133
  JAN-19-2015 17:50:00      0.000     0.000    0.0133
  JAN-19-2015 17:51:00      0.000     0.000    0.0133
  JAN-19-2015 17:52:00      0.000     0.000    0.0132
  JAN-19-2015 17:53:00      0.000     0.000    0.0132
  JAN-19-2015 17:54:00      0.000     0.000    0.0132
  JAN-19-2015 17:55:00      0.000     0.000    0.0131
  JAN-19-2015 17:56:00      0.000     0.000    0.0131
  JAN-19-2015 17:57:00      0.000     0.000    0.0131
  JAN-19-2015 17:58:00      0.000     0.000    0.0130
  JAN-19-2015 17:59:00      0.000     0.000    0.0130
  JAN-19-2015 18:00:00      0.000     0.000    0.0130
  JAN-19-2015 18:01:00      0.000     0.000    0.0129
  JAN-19-2015 18:02:00      0.000     0.000    0.0129
  JAN-19-2015 18:03:00      0.000     0.000    0.0129
  JAN-19-2015 18:04:00      0.000     0.000    0.0129
  JAN-19-2015 18:05:00      0.000     0.000    0.0128
  JAN-19-2015 18:06:00      0.000     0.000    0.0128
  JAN-19-2015 18:07:00      0.000     0.000    0.0128
  JAN-19-2015 18:08:00      0.000     0.000    0.0127
  JAN-19-2015 18:09:00      0.000     0.000    0.0127
  JAN-19-2015 18:10:00      0.000     0.000    0.0127
  JAN-19-2015 18:11:00      0.000     0.000    0.0126
  JAN-19-2015 18:12:00      0.000     0.000    0.0126
  JAN-19-2015 18:13:00      0.000     0.000    0.0126
  JAN-19-2015 18:14:00      0.000     0.000    0.0126
  JAN-19-2015 18:15:00      0.000     0.000    0.0125
  JAN-19-2015 18:16:00      0.000     0.000    0.0125
  JAN-19-2015 18:17:00      0.000     0.000    0.0125
  JAN-19-2015 18:18:00      0.000     0.000    0.0124
  JAN-19-2015 18:19:00      0.000     0.000    0.0124
  JAN-19-2015 18:20:00      0.000     0.000    0.0124
  JAN-19-2015 18:21:00      0.000     0.000    0.0123
  JAN-19-2015 18:22:00      0.000     0.000    0.0123
  JAN-19-2015 18:23:00      0.000     0.000    0.0123
  JAN-19-2015 18:24:00      0.000     0.000    0.0123
  JAN-19-2015 18:25:00      0.000     0.000    0.0122
  JAN-19-2015 18:26:00      0.000     0.000    0.0122
  JAN-19-2015 18:27:00      0.000     0.000    0.0122
  JAN-19-2015 18:28:00      0.000     0.000    0.0121
  JAN-19-2015 18:29:00      0.000     0.000    0.0121
  JAN-19-2015 18:30:00      0.000     0.000    0.0121
  JAN-19-2015 18:31:00      0.000     0.000    0.0121
  JAN-19-2015 18:32:00      0.000     0.000    0.0120
  JAN-19-2015 18:33:00      0.000     0.000    0.0120
  JAN-19-2015 18:34:00      0.000     0.000    0.0120
  JAN-19-2015 18:35:00      0.000     0.000    0.0119
  JAN-19-2015 18:36:00      0.000     0.000    0.0119
  JAN-19-2015 18:37:00      0.000     0.000    0.0119
  JAN-19-2015 18:38:00      0.000     0.000    0.0119
  JAN-19-2015 18:39:00      0.000     0.000    0.0118
  JAN-19-2015 18:40:00      0.000     0.000    0.0118
  JAN-19-2015 18:41:00      0.000     0.000    0.0118
  JAN-19-2015 18:42:00      0.000     0.000    0.0118
  JAN-19-2015 18:43:00      0.000     0.000    0.0117
  JAN-19-2015 18:44:00      0.000     0.000    0.0117
  JAN-19-2015 18:45:00      0.000     0.000    0.0117
  JAN-19-2015 18:46:00      0.000     0.000    0.0116
  JAN-19-2015 18:47:00      0.000     0.000    0.0116
  JAN-19-2015 18:48:00      0.000     0.000    0.0116
  JAN-19-2015 18:49:00      0.000     0.000    0.0116
  JAN-19-2015 18:50:00      0.000     0.000    0.0115
  JAN-19-2015 18:51:00      0.000     0.000    0.0115
  JAN-19-2015 18:52:00      0.000     0.000    0.0115
  JAN-19-2015 18:53:00      0.000     0.000    0.0115
  JAN-19-2015 18:54:00      0.000     0.000    0.0114
  JAN-19-2015 18:55:00      0.000     0.000    0.0114
  JAN-19-2015 18:56:00      0.000     0.000    0.0114
  JAN-19-2015 18:57:00      0.000     0.000    0.0114
  JAN-19-2015 18:58:00      0.000     0.000    0.0113
  JAN-19-2015 18:59:00      0.000     0.000    0.0113
  JAN-19-2015 19:00:00      0.000     0.000    0.0113
  JAN-19-2015 19:01:00      0.000     0.000    0.0113
  JAN-19-2015 19:02:00      0.000     0.000    0.0112
  JAN-19-2015 19:03:00      0.000     0.000    0.0112
  JAN-19-2015 19:04:00      0.000     0.000    0.0112
  JAN-19-2015 19:05:00      0.000     0.000    0.0112
  JAN-19-2015 19:06:00      0.000     0.000    0.0111
  JAN-19-2015 19:07:00      0.000     0.000    0.0111
  JAN-19-2015 19:08:00      0.000     0.000    0.0111
  JAN-19-2015 19:09:00      0.000     0.000    0.0111
  JAN-19-2015 19:10:00      0.000     0.000    0.0110
  JAN-19-2015 19:11:00      0.000     0.000    0.0110
  JAN-19-2015 19:12:00      0.000     0.000    0.0110
  JAN-19-2015 19:13:00      0.000     0.000    0.0110
  JAN-19-2015 19:14:00      0.000     0.000    0.0109
  JAN-19-2015 19:15:00      0.000     0.000    0.0109
  JAN-19-2015 19:16:00      0.000     0.000    0.0109
  JAN-19-2015 19:17:00      0.000     0.000    0.0109
  JAN-19-2015 19:18:00      0.000     0.000    0.0108
  JAN-19-2015 19:19:00      0.000     0.000    0.0108
  JAN-19-2015 19:20:00      0.000     0.000    0.0108
  JAN-19-2015 19:21:00      0.000     0.000    0.0108
  JAN-19-2015 19:22:00      0.000     0.000    0.0107
  JAN-19-2015 19:23:00      0.000     0.000    0.0107
  JAN-19-2015 19:24:00      0.000     0.000    0.0107
  JAN-19-2015 19:25:00      0.000     0.000    0.0107
  JAN-19-2015 19:26:00      0.000     0.000    0.0106
  JAN-19-2015 19:27:00      0.000     0.000    0.0106
  JAN-19-2015 19:28:00      0.000     0.000    0.0106
[...]
  JAN-19-2015 18:51:00      0.015     0.000     0.086     1.000
  JAN-19-2015 18:52:00      0.015     0.000     0.086     1.000
  JAN-19-2015 18:53:00      0.015     0.000     0.086     1.000
  JAN-19-2015 18:54:00      0.015     0.000     0.086     1.000
  JAN-19-2015 18:55:00      0.015     0.000     0.085     1.000
  JAN-19-2015 18:56:00      0.015     0.000     0.085     1.000
  JAN-19-2015 18:57:00      0.015     0.000     0.085     1.000
  JAN-19-2015 18:58:00      0.014     0.000     0.085     1.000
  JAN-19-2015 18:59:00      0.014     0.000     0.085     1.000
  JAN-19-2015 19:00:00      0.014     0.000     0.084     1.000
  JAN-19-2015 19:01:00      0.014     0.000     0.084     1.000
  JAN-19-2015 19:02:00      0.014     0.000     0.084     1.000
  JAN-19-2015 19:03:00      0.014     0.000     0.084     1.000
  JAN-19-2015 19:04:00      0.014     0.000     0.083     1.000
  JAN-19-2015 19:05:00      0.014     0.000     0.083     1.000
  JAN-19-2015 19:06:00      0.014     0.000     0.083     1.000
  JAN-19-2015 19:07:00      0.014     0.000     0.083     1.000
  JAN-19-2015 19:08:00      0.014     0.000     0.082     1.000
  JAN-19-2015 19:09:00      0.013     0.000     0.082     1.000
  JAN-19-2015 19:10:00      0.013     0.000     0.082     1.000
  JAN-19-2015 19:11:00      0.013     0.000     0.082     1.000
  JAN-19-2015 19:12:00      0.013     0.000     0.082     1.000
  JAN-19-2015 19:13:00      0.013     0.000     0.081     1.000
  JAN-19-2015 19:14:00      0.013     0.000     0.081     1.000
  JAN-19-2015 19:15:00      0.013     0.000     0.081     1.000
  JAN-19-2015 19:16:00      0.013     0.000     0.081     1.000
  JAN-19-2015 19:17:00      0.013     0.000     0.080     1.000
  JAN-19-2015 19:18:00      0.013     0.000     0.080     1.000
  JAN-19-2015 19:19:00      0.013     0.000     0.080     1.000
  JAN-19-2015 19:20:00      0.012     0.000     0.080     1.000
  JAN-19-2015 19:21:00      0.012     0.000     0.080     1.000
  JAN-19-2015 19:22:00      0.012     0.000     0.079     1.000
  JAN-19-2015 19:23:00      0.012     0.000     0.079     1.000
  JAN-19-2015 19:24:00      0.012     0.000     0.079     1.000
  JAN-19-2015 19:25:00      0.012     0.000     0.079     1.000
  JAN-19-2015 19:26:00      0.012     0.000     0.078     1.000
  JAN-19-2015 19:27:00      0.012     0.000     0.078     1.000
  JAN-19-2015 19:28:00      0.012     0.000     0.078     1.000
  JAN-19-2015 19:29:00      0.012     0.000     0.078     1.000
  JAN-19-2015 19:30:00      0.012     0.000     0.078     1.000
  JAN-19-2015 19:31:00      0.012     0.000     0.077     1.000
  JAN-19-2015 19:32:00      0.011     0.000     0.077     1.000
  JAN-19-2015 19:33:00      0.011     0.000     0.077     1.000
  JAN-19-2015 19:34:00      0.011     0.000     0.077     1.000
  JAN-19-2015 19:35:00      0.011     0.000     0.077     1.000
  JAN-19-2015 19:36:00      0.011     0.000     0.076     1.000
  JAN-19-2015 19:37:00      0.011     0.000     0.076     1.000
  JAN-19-2015 19:38:00      0.011     0.000     0.076     1.000
  JAN-19-2015 19:39:00      0.011     0.000     0.076     1.000
  JAN-19-2015 19:40:00      0.011     0.000     0.075     1.000
  JAN-19-2015 19:41:00      0.011     0.000     0.075     1.000
  JAN-19-2015 19:42:00      0.011     0.000     0.075     1.000
  JAN-19-2015 19:43:00      0.011     0.000     0.075     1.000
  JAN-19-2015 19:44:00      0.010     0.000     0.075     1.000
  JAN-19-2015 19:45:00      0.010     0.000     0.074     1.000
  JAN-19-2015 19:46:00      0.010     0.000     0.074     1.000
  JAN-19-2015 19:47:00      0.010     0.000     0.074     1.000
  JAN-19-2015 19:48:00      0.010     0.000     0.074     1.000
  JAN-19-2015 19:49:00      0.010     0.000     0.074     1.000
  JAN-19-2015 19:50:00      0.010     0.000     0.073     1.000
  JAN-19-2015 19:51:00      0.010     0.000     0.073     1.000
  JAN-19-2015 19:52:00      0.010     0.000     0.073     1.000
  JAN-19-2015 19:53:00      0.010     0.000     0.073     1.000
  JAN-19-2015 19:54:00      0.010     0.000     0.073     1.000
  JAN-19-2015 19:55:00      0.010     0.000     0.072     1.000
  JAN-19-2015 19:56:00      0.010     0.000     0.072     1.000
  JAN-19-2015 19:57:00      0.010     0.000     0.072     1.000
  JAN-19-2015 19:58:00      0.009     0.000     0.072     1.000
  JAN-19-2015 19:59:00      0.009     0.000     0.072     1.000
  JAN-19-2015 20:00:00      0.009     0.000     0.071     1.000
  JAN-19-2015 20:01:00      0.009     0.000     0.071     1.000
  JAN-19-2015 20:02:00      0.009     0.000     0.071     1.000
  JAN-19-2015 20:03:00      0.009     0.000     0.071     1.000
  JAN-19-2015 20:04:00      0.009     0.000     0.071     1.000
  JAN-19-2015 20:05:00      0.009     0.000     0.071     1.000
  JAN-19-2015 20:06:00      0.009     0.000     0.070     1.000
  JAN-19-2015 20:07:00      0.009     0.000     0.070     1.000
  JAN-19-2015 20:08:00      0.009     0.000     0.070     1.000
  JAN-19-2015 20:09:00      0.009     0.000     0.070     1.000
  JAN-19-2015 20:10:00      0.009     0.000     0.070     1.000
  JAN-19-2015 20:11:00      0.009     0.000     0.069     1.000
  JAN-19-2015 20:12:00      0.008     0.000     0.069     1.000
  JAN-19-2015 20:13:00      0.008     0.000     0.069     1.000
  JAN-19-2015 20:14:00      0.008     0.000     0.069     1.000
  JAN-19-2015 20:15:00      0.008     0.000     0.069     1.000
  JAN-19-2015 20:16:00      0.008     0.000     0.068     1.000
  JAN-19-2015 20:17:00      0.008     0.000     0.068     1.000
  JAN-19-2015 20:18:00      0.008     0.000     0.068     1.000
  JAN-19-2015 20:19:00      0.008     0.000     0.068     1.000
  JAN-19-2015 20:20:00      0.008     0.000     0.068     1.000
  JAN-19-2015 20:21:00      0.008     0.000     0.068     1.000
  JAN-19-2015 20:22:00      0.008     0.000     0.067     1.000
  JAN-19-2015 20:23:00      0.008     0.000     0.067     1.000
  JAN-19-2015 20:24:00      0.008     0.000     0.067     1.000
  JAN-19-2015 20:25:00      0.008     0.000     0.067     1.000
  JAN-19-2015 20:26:00      0.008     0.000     0.067     1.000
  JAN-19-2015 20:27:00      0.008     0.000     0.066     1.000
  JAN-19-2015 20:28:00      0.007     0.000     0.066     1.000
  JAN-19-2015 20:29:00      0.007     0.000     0.066     1.000
  JAN-19-2015 20:30:00      0.007     0.000     0.066     1.000
  JAN-19-2015 20:31:00      0.007     0.000     0.066     1.000
  JAN-19-2015 20:32:00      0.007     0.000     0.066     1.000
  JAN-19-2015 20:33:00      0.007     0.000     0.065     1.000
  JAN-19-2015 20:34:00      0.007     0.000     0.065     1.000
  JAN-19-2015 20:35:00      0.007     0.000     0.065     1.000
  JAN-19-2015 20:36:00      0.007     0.000     0.065     1.000
  JAN-19-2015 20:37:00      0.007     0.000     0.065     1.000
  JAN-19-2015 20:38:00      0.007     0.000     0.065     1.000
  JAN-19-2015 20:39:00      0.007     0.000     0.064     1.000
  JAN-19-2015 20:40:00      0.007     0.000     0.064     1.000
  JAN-19-2015 20:41:00      0.007     0.000     0.064     1.000
  JAN-19-2015 20:42:00      0.007     0.000     0.064     1.000
  JAN-19-2015 20:43:00      0.007     0.000     0.064     1.000
  JAN-19-2015 20:44:00      0.007     0.000     0.064     1.000
  JAN-19-2015 20:45:00      0.006     0.000     0.063     1.000
  JAN-19-2015 20:46:00      0.006     0.000     0.063     1.000
  JAN-19-2015 20:47:00      0.006     0.000     0.063     1.000
  JAN-19-2015 20:48:00      0.006     0.000     0.063     1.000
  JAN-19-2015 20:49:00      0.006     0.000     0.063     1.000
  JAN-19-2015 20:50:00      0.006     0.000     0.063     1.000
  JAN-19-2015 20:51:00      0.006     0.000     0.062     1.000
  JAN-19-2015 20:52:00      0.006     0.000     0.062     1.000
  JAN-19-2015 20:53:00      0.006     0.000     0.062     1.000
  JAN-19-2015 20:54:00      0.006     0.000     0.062     1.000
  JAN-19-2015 20:55:00      0.006     0.000     0.062     1.000
  JAN-19-2015 20:56:00      0.006     0.000     0.062     1.000
  JAN-19-2015 20:57:00      0.006     0.000     0.061     1.000
  JAN-19-2015 20:58:00      0.006     0.000     0.061     1.000
  JAN-19-2015 20:59:00      0.006     0.000     0.061     1.000
  JAN-19-2015 21:00:00      0.006     0.000     0.061     1.000
  JAN-19-2015 21:01:00      0.006     0.000     0.061     1.000
  JAN-19-2015 21:02:00      0.006     0.000     0.061     1.000
  JAN-19-2015 21:03:00      0.006     0.000     0.060     1.000
  JAN-19-2015 21:04:00      0.005     0.000     0.060     1.000
  JAN-19-2015 21:05:00      0.005     0.000     0.060     1.000
  JAN-19-2015 21:06:00      0.005     0.000     0.060     1.000
  JAN-19-2015 21:07:00      0.005     0.000     0.060     1.000
  JAN-19-2015 21:08:00      0.005     0.000     0.060     1.000
  JAN-19-2015 21:09:00      0.005     0.000     0.060     1.000
  JAN-19-2015 21:10:00      0.005     0.000     0.059     1.000
  JAN-19-2015 21:11:00      0.005     0.000     0.059     1.000
  JAN-19-2015 21:12:00      0.005     0.000     0.059     1.000
  JAN-19-2015 21:13:00      0.005     0.000     0.059     1.000
  JAN-19-2015 21:14:00      0.005     0.000     0.059     1.000
  JAN-19-2015 21:15:00      0.005     0.000     0.059     1.000
  JAN-19-2015 21:16:00      0.005     0.000     0.058     1.000
  JAN-19-2015 21:17:00      0.005     0.000     0.058     1.000
  JAN-19-2015 21:18:00      0.005     0.000     0.058     1.000
  JAN-19-2015 21:19:00      0.005     0.000     0.058     1.000
  JAN-19-2015 21:20:00      0.005     0.000     0.058     1.000
  JAN-19-2015 21:21:00      0.005     0.000     0.058     1.000
  JAN-19-2015 21:22:00      0.005     0.000     0.058     1.000
  JAN-19-2015 21:23:00      0.005     0.000     0.057     1.000
  JAN-19-2015 21:24:00      0.005     0.000     0.057     1.000
  JAN-19-2015 21:25:00      0.004     0.000     0.057     1.000
  JAN-19-2015 21:26:00      0.004     0.000     0.057     1.000
  JAN-19-2015 21:27:00      0.004     0.000     0.057     1.000
  JAN-19-2015 21:28:00      0.004     0.000     0.057     1.000
  JAN-19-2015 21:29:00      0.004     0.000     0.057     1.000
  JAN-19-2015 21:30:00      0.004     0.000     0.056     1.000
  JAN-19-2015 21:31:00      0.004     0.000     0.056     1.000
  JAN-19-2015 21:32:00      0.004     0.000     0.056     1.000
  JAN-19-2015 21:33:00      0.004     0.000     0.056     1.000
  JAN-19-2015 21:34:00      0.004     0.000     0.056     1.000
  JAN-19-2015 21:35:00      0.004     0.000     0.056     1.000
  JAN-19-2015 21:36:00      0.004     0.000     0.056     1.000
  JAN-19-2015 21:37:00      0.004     0.000     0.055     1.000
  JAN-19-2015 21:38:00      0.004     0.000     0.055     1.000
  JAN-19-2015 21:39:00      0.004     0.000     0.055     1.000
  JAN-19-2015 21:40:00      0.004     0.000     0.055     1.000
  JAN-19-2015 21:41:00      0.004     0.000     0.055     1.000
  JAN-19-2015 21:42:00      0.004     0.000     0.055     1.000
  JAN-19-2015 21:43:00      0.004     0.000     0.055     1.000
  JAN-19-2015 21:44:00      0.004     0.000     0.055     1.000
  JAN-19-2015 21:45:00      0.004     0.000     0.054     1.000
  JAN-19-2015 21:46:00      0.004     0.000     0.054     1.000
  JAN-19-2015 21:47:00      0.004     0.000     0.054     1.000
  JAN-19-2015 21:48:00      0.004     0.000     0.054     1.000
  JAN-19-2015 21:49:00      0.004     0.000     0.054     1.000
  JAN-19-2015 21:50:00      0.004     0.000     0.054     1.000
  JAN-19-2015 21:51:00      0.004     0.000     0.054     1.000
  JAN-19-2015 21:52:00      0.003     0.000     0.054     1.000
  JAN-19-2015 21:53:00      0.003     0.000     0.053     1.000
  JAN-19-2015 21:54:00      0.003     0.000     0.053     1.000
  JAN-19-2015 21:55:00      0.003     0.000     0.053     1.000
  JAN-19-2015 21:56:00      0.003     0.000     0.053     1.000
  JAN-19-2015 21:57:00      0.003     0.000     0.053     1.000
  JAN-19-2015 21:58:00      0.003     0.000     0.053     1.000
  JAN-19-2015 21:59:00      0.003     0.000     0.053     1.000
  JAN-19-2015 22:00:00      0.003     0.000     0.053     1.000
  JAN-19-2015 22:01:00      0.003     0.000     0.052     1.000
  JAN-19-2015 22:02:00      0.003     0.000     0.052     1.000
  JAN-19-2015 22:03:00      0.003     0.000     0.052     1.000
  JAN-19-2015 22:04:00      0.003     0.000     0.052     1.000
  JAN-19-2015 22:05:00      0.003     0.000     0.052     1.000
  JAN-19-2015 22:06:00      0.003     0.000     0.052     1.000
  JAN-19-2015 22:07:00      0.003     0.000     0.052     1.000
  JAN-19-2015 22:08:00      0.003     0.000     0.052     1.000
  JAN-19-2015 22:09:00      0.003     0.000     0.051     1.000
  JAN-19-2015 22:10:00      0.003     0.000     0.051     1.000
  JAN-19-2015 22:11:00      0.003     0.000     0.051     1.000
  JAN-19-2015 22:12:00      0.003     0.000     0.051     1.000
  JAN-19-2015 22:13:00      0.003     0.000     0.051     1.000
  JAN-19-2015 22:14:00      0.003     0.000     0.051     1.000
  JAN-19-2015 22:15:00      0.003     0.000     0.051     1.000
  JAN-19-2015 22:16:00      0.003     0.000     0.051     1.000
  JAN-19-2015 22:17:00      0.003     0.000     0.050     1.000
  JAN-19-2015 22:18:00      0.003     0.000     0.050     1.000
  JAN-19-2015 22:19:00      0.003     0.000     0.050     1.000
  JAN-19-2015 22:20:00      0.003     0.000     0.050     1.000
  JAN-19-2015 22:21:00      0.003     0.000     0.050     1.000
  JAN-19-2015 22:22:00      0.003     0.000     0.050     1.000
  JAN-19-2015 22:23:00      0.003     0.000     0.050     1.000
  JAN-19-2015 22:24:00      0.003     0.000     0.050     1.000
  JAN-19-2015 22:25:00      0.003     0.000     0.050     1.000
  JAN-19-2015 22:26:00      0.003     0.000     0.049     1.000
  JAN-19-2015 22:27:00      0.003     0.000     0.049     1.000
  JAN-19-2015 22:28:00      0.002     0.000     0.049     1.000
  JAN-19-2015 22:29:00      0.002     0.000     0.049     1.000
  JAN-19-2015 22:30:00      0.002     0.000     0.049     1.000
  JAN-19-2015 22:31:00      0.002     0.000     0.049     1.000
  JAN-19-2015 22:32:00      0.002     0.000     0.049     1.000
  JAN-19-2015 22:33:00      0.002     0.000     0.049     1.000
  JAN-19-2015 22:34:00      0.002     0.000     0.049     1.000
  JAN-19-2015 22:35:00      0.002     0.000     0.049     1.000
  JAN-19-2015 22:36:00      0.002     0.000     0.048     1.000
  JAN-19-2015 22:37:00      0.002     0.000     0.048     1.000
  JAN-19-2015 22:38:00      0.002     0.000     0.048     1.000
  JAN-19-2015 22:39:00      0.002     0.000     0.048     1.000
  JAN-19-2015 22:40:00      0.002     0.000     0.048     1.000
  JAN-19-2015 22:41:00      0.002     0.000     0.048     1.000
  JAN-19-2015 22:42:00      0.002     0.000     0.048     1.000
  JAN-19-2015 22:43:00      0.002     0.000     0.048     1.000
  JAN-19-2015 22:44:00      0.002     0.000     0.048     1.000
  JAN-19-2015 22:45:00      0.002     0.000     0.047     1.000
  JAN-19-2015 22:46:00      0.002     0.000     0.047     1.000
  JAN-19-2015 22:47:00      0.002     0.000     0.047     1.000
  JAN-19-2015 22:48:00      0.002     0.000     0.047     1.000
  JAN-19-2015 22:49:00      0.002     0.000     0.047     1.000
  JAN-19-2015 22:50:00      0.002     0.000     0.047     1.000
  JAN-19-2015 22:51:00      0.002     0.000     0.047     1.000
  JAN-19-2015 22:52:00      0.002     0.000     0.047     1.000
  JAN-19-2015 22:53:00      0.002     0.000     0.047     1.000
  JAN-19-2015 22:54:00      0.002     0.000     0.047     1.000
  JAN-19-2015 22:55:00      0.002     0.000     0.047     1.000
  JAN-19-2015 22:56:00      0.002     0.000     0.046     1.000
  JAN-19-2015 22:57:00      0.002     0.000     0.046     1.000
  JAN-19-2015 22:58:00      0.002     0.000     0.046     1.000
  JAN-19-2015 22:59:00      0.002     0.000     0.046     1.000
  JAN-19-2015 23:00:00      0.002     0.000     0.046     1.000
  JAN-19-2015 23:01:00      0.001     0.000     0.046     1.000
  JAN-19-2015 23:02:00      0.001     0.000     0.046     1.000
  JAN-19-2015 23:03:00      0.001     0.000     0.046     1.000
  JAN-19-2015 23:04:00      0.001     0.000     0.046     1.000
  JAN-19-2015 23:05:00      0.001     0.000     0.046     1.000
  JAN-19-2015 23:06:00      0.001     0.000     0.045     1.000
  JAN-19-2015 23:07:00      0.001     0.000     0.045     1.000
  JAN-19-2015 23:08:00      0.001     0.000     0.045     1.000
  JAN-19-2015 23:09:00      0.000     0.000     0.045     1.000
  JAN-19-2015 23:10:00      0.000     0.000     0.045     1.000
  JAN-19-2015 23:11:00      0.000     0.000     0.045     1.000
  JAN-19-2015 23:12:00      0.000     0.000     0.045     1.000
  JAN-19-2015 23:13:00      0.000     0.000     0.045     1.000
  JAN-19-2015 23:14:00      0.000     0.000     0.045     1.000
  JAN-19-2015 23:15:00      0.000     0.000     0.045     1.000
  JAN-19-2015 23:16:00      0.000     0.000     0.045     1.000
  JAN-19-2015 23:17:00      0.000     0.000     0.045     1.000
  JAN-19-2015 23:18:00      0.000     0.000     0.044     1.000
  JAN-19-2015 23:19:00      0.000     0.000     0.044     1.000
  JAN-19-2015 23:20:00      0.000     0.000     0.044     1.000
  JAN-19-2015 23:21:00      0.000     0.000     0.044     1.000
  JAN-19-2015 23:22:00      0.000     0.000     0.044     1.000
  JAN-19-2015 23:23:00      0.000     0.000     0.044     1.000
  JAN-19-2015 23:24:00      0.000     0.000     0.044     1.000
  JAN-19-2015 23:25:00      0.000     0.000     0.044     1.000
  JAN-19-2015 23:26:00      0.000     0.000     0.044     1.000
  JAN-19-2015 23:27:00      0.000     0.000     0.044     1.000
  JAN-19-2015 23:28:00      0.000     0.000     0.044     1.000
  JAN-19-2015 23:29:00      0.000     0.000     0.044     1.000
  JAN-19-2015 23:30:00      0.000     0.000     0.043     1.000
  JAN-19-2015 23:31:00      0.000     0.000     0.043     1.000
  JAN-19-2015 23:32:00      0.000     0.000     0.043     1.000
  JAN-19-2015 23:33:00      0.000     0.000     0.043     1.000
  JAN-19-2015 23:34:00      0.000     0.000     0.043     1.000
  JAN-19-2015 23:35:00      0.000     0.000     0.043     1.000
  JAN-19-2015 23:36:00      0.000     0.000     0.043     1.000
  JAN-19-2015 23:37:00      0.000     0.000     0.043     1.000
  JAN-19-2015 23:38:00      0.000     0.000     0.043     1.000
  JAN-19-2015 23:39:00      0.000     0.000     0.043     1.000
  JAN-19-2015 23:40:00      0.000     0.000     0.043     1.000
  JAN-19-2015 23:41:00      0.000     0.000     0.043     1.000
  JAN-19-2015 23:42:00      0.000     0.000     0.043     1.000
  JAN-19-2015 23:43:00      0.000     0.000     0.042     1.000
  JAN-19-2015 23:44:00      0.000     0.000     0.042     1.000
  JAN-19-2015 23:45:00      0.000     0.000     0.042     1.000
  JAN-19-2015 23:46:00      0.000     0.000     0.042     1.000
  JAN-19-2015 23:47:00      0.000     0.000     0.042     1.000
  JAN-19-2015 23:48:00      0.000     0.000     0.042     1.000
  JAN-19-2015 23:49:00      0.000     0.000     0.042     1.000
  JAN-19-2015 23:50:00      0.000     0.000     0.042     1.000
  JAN-19-2015 23:51:00      0.000     0.000     0.042     1.000
  JAN-19-2015 23:52:00      0.000     0.000     0.042     1.000
  JAN-19-2015 23:53:00      0.000     0.000     0.042     1.000
  JAN-19-2015 23:54:00      0.000     0.000     0.042     1.000
  JAN-19-2015 23:55:00      0.000     0.000     0.042     1.000
  JAN-19-2015 23:56:00      0.000     0.000     0.041     1.000
  JAN-19-2015 23:57:00      0.000     0.000     0.041     1.000
  JAN-19-2015 23:58:00      0.000     0.000     0.041     1.000
  JAN-19-2015 23:59:00      0.000     0.000     0.041     1.000
  JAN-20-2015 00:00:00      0.000     0.000     0.041     1.000
  

  Analysis begun on:  Fri Sep 04 15:04:42 2015
  Analysis ended on:  Fri Sep 04 15:04:43 2015
  Total elapsed time: 00:00:01